/*--------------------------------*- C++ -*----------------------------------*\
| =========                 |                                                 |
| \\      /  F ield         | OpenFOAM: The Open Source CFD Toolbox           |
|  \\    /   O peration     | Version:  2.3.0                                 |
|   \\  /    A nd           | Web:      www.OpenFOAM.org                      |
|    \\/     M anipulation  |                                                 |
\*---------------------------------------------------------------------------*/
FoamFile
{
    version     2.0;
    format      ascii;
    class       featureEdgeMesh;
    location    "constant/triSurface";
    object      cubes.eMesh;
}
// * * * * * * * * * * * * * * * * * * * * * * * * * * * * * * * * * * * * * //


// points:

120
(
(0.5 0 0.05000000075)
(0.5 0 0)
(0.5 -0.05000000075 0)
(0.5 -0.05000000075 0.05000000075)
(0.5500000119 0 0.05000000075)
(0.5500000119 0 0)
(0.5500000119 -0.05000000075 0.05000000075)
(0.5500000119 -0.05000000075 0)
(0 -0.150000006 0.05000000075)
(0 -0.150000006 0)
(0 -0.200000003 0)
(0 -0.200000003 0.05000000075)
(0.05000000075 -0.150000006 0.05000000075)
(0.05000000075 -0.150000006 0)
(0.05000000075 -0.200000003 0.05000000075)
(0.05000000075 -0.200000003 0)
(0 -0.05000000075 0.05000000075)
(0 -0.05000000075 0)
(0 -0.1000000015 0)
(0 -0.1000000015 0.05000000075)
(0.05000000075 -0.05000000075 0.05000000075)
(0.05000000075 -0.05000000075 0)
(0.05000000075 -0.1000000015 0.05000000075)
(0.05000000075 -0.1000000015 0)
(0.05000000075 0 0.05000000075)
(0.05000000075 0 0)
(0.05000000075 0.05000000075 0)
(0.05000000075 0.05000000075 0.05000000075)
(0 0.05000000075 0)
(0 0.05000000075 0.05000000075)
(0 0 0)
(0 0 0.05000000075)
(0.1000000015 -0.1000000015 0.05000000075)
(0.1000000015 -0.1000000015 0)
(0.1000000015 -0.150000006 0)
(0.1000000015 -0.150000006 0.05000000075)
(0.150000006 -0.1000000015 0.05000000075)
(0.150000006 -0.1000000015 0)
(0.150000006 -0.150000006 0.05000000075)
(0.150000006 -0.150000006 0)
(0.1000000015 0 0.05000000075)
(0.1000000015 0 0)
(0.1000000015 -0.05000000075 0)
(0.1000000015 -0.05000000075 0.05000000075)
(0.150000006 0 0.05000000075)
(0.150000006 0 0)
(0.150000006 -0.05000000075 0.05000000075)
(0.150000006 -0.05000000075 0)
(0.200000003 -0.150000006 0.05000000075)
(0.200000003 -0.150000006 0)
(0.200000003 -0.200000003 0)
(0.200000003 -0.200000003 0.05000000075)
(0.25 -0.150000006 0.05000000075)
(0.25 -0.150000006 0)
(0.25 -0.200000003 0.05000000075)
(0.25 -0.200000003 0)
(0.200000003 -0.05000000075 0.05000000075)
(0.200000003 -0.05000000075 0)
(0.200000003 -0.1000000015 0)
(0.200000003 -0.1000000015 0.05000000075)
(0.25 -0.05000000075 0.05000000075)
(0.25 -0.05000000075 0)
(0.25 -0.1000000015 0.05000000075)
(0.25 -0.1000000015 0)
(0.200000003 0.05000000075 0.05000000075)
(0.200000003 0.05000000075 0)
(0.200000003 0 0)
(0.200000003 0 0.05000000075)
(0.25 0.05000000075 0.05000000075)
(0.25 0.05000000075 0)
(0.25 0 0.05000000075)
(0.25 0 0)
(0.3000000119 -0.1000000015 0.05000000075)
(0.3000000119 -0.1000000015 0)
(0.3000000119 -0.150000006 0)
(0.3000000119 -0.150000006 0.05000000075)
(0.349999994 -0.1000000015 0.05000000075)
(0.349999994 -0.1000000015 0)
(0.349999994 -0.150000006 0.05000000075)
(0.349999994 -0.150000006 0)
(0.3000000119 0 0.05000000075)
(0.3000000119 0 0)
(0.3000000119 -0.05000000075 0)
(0.3000000119 -0.05000000075 0.05000000075)
(0.349999994 0 0.05000000075)
(0.349999994 0 0)
(0.349999994 -0.05000000075 0.05000000075)
(0.349999994 -0.05000000075 0)
(0.400000006 -0.150000006 0.05000000075)
(0.400000006 -0.150000006 0)
(0.400000006 -0.200000003 0)
(0.400000006 -0.200000003 0.05000000075)
(0.4499999881 -0.150000006 0.05000000075)
(0.4499999881 -0.150000006 0)
(0.4499999881 -0.200000003 0.05000000075)
(0.4499999881 -0.200000003 0)
(0.400000006 -0.05000000075 0.05000000075)
(0.400000006 -0.05000000075 0)
(0.400000006 -0.1000000015 0)
(0.400000006 -0.1000000015 0.05000000075)
(0.4499999881 -0.05000000075 0.05000000075)
(0.4499999881 -0.05000000075 0)
(0.4499999881 -0.1000000015 0.05000000075)
(0.4499999881 -0.1000000015 0)
(0.400000006 0.05000000075 0.05000000075)
(0.400000006 0.05000000075 0)
(0.400000006 0 0)
(0.400000006 0 0.05000000075)
(0.4499999881 0.05000000075 0.05000000075)
(0.4499999881 0.05000000075 0)
(0.4499999881 0 0.05000000075)
(0.4499999881 0 0)
(0.5 -0.1000000015 0.05000000075)
(0.5 -0.1000000015 0)
(0.5 -0.150000006 0)
(0.5 -0.150000006 0.05000000075)
(0.5500000119 -0.1000000015 0.05000000075)
(0.5500000119 -0.1000000015 0)
(0.5500000119 -0.150000006 0.05000000075)
(0.5500000119 -0.150000006 0)
)


// edges:

180
(
(0 1)
(1 2)
(2 3)
(3 0)
(4 5)
(5 1)
(0 4)
(6 7)
(7 5)
(4 6)
(2 7)
(6 3)
(8 9)
(9 10)
(10 11)
(11 8)
(12 13)
(13 9)
(8 12)
(14 15)
(15 13)
(12 14)
(10 15)
(14 11)
(16 17)
(17 18)
(18 19)
(19 16)
(20 21)
(21 17)
(16 20)
(22 23)
(23 21)
(20 22)
(18 23)
(22 19)
(24 25)
(25 26)
(26 27)
(27 24)
(26 28)
(28 29)
(29 27)
(28 30)
(30 31)
(31 29)
(30 25)
(24 31)
(32 33)
(33 34)
(34 35)
(35 32)
(36 37)
(37 33)
(32 36)
(38 39)
(39 37)
(36 38)
(34 39)
(38 35)
(40 41)
(41 42)
(42 43)
(43 40)
(44 45)
(45 41)
(40 44)
(46 47)
(47 45)
(44 46)
(42 47)
(46 43)
(48 49)
(49 50)
(50 51)
(51 48)
(52 53)
(53 49)
(48 52)
(54 55)
(55 53)
(52 54)
(50 55)
(54 51)
(56 57)
(57 58)
(58 59)
(59 56)
(60 61)
(61 57)
(56 60)
(62 63)
(63 61)
(60 62)
(58 63)
(62 59)
(64 65)
(65 66)
(66 67)
(67 64)
(68 69)
(69 65)
(64 68)
(70 71)
(71 69)
(68 70)
(66 71)
(70 67)
(72 73)
(73 74)
(74 75)
(75 72)
(76 77)
(77 73)
(72 76)
(78 79)
(79 77)
(76 78)
(74 79)
(78 75)
(80 81)
(81 82)
(82 83)
(83 80)
(84 85)
(85 81)
(80 84)
(86 87)
(87 85)
(84 86)
(82 87)
(86 83)
(88 89)
(89 90)
(90 91)
(91 88)
(92 93)
(93 89)
(88 92)
(94 95)
(95 93)
(92 94)
(90 95)
(94 91)
(96 97)
(97 98)
(98 99)
(99 96)
(100 101)
(101 97)
(96 100)
(102 103)
(103 101)
(100 102)
(98 103)
(102 99)
(104 105)
(105 106)
(106 107)
(107 104)
(108 109)
(109 105)
(104 108)
(110 111)
(111 109)
(108 110)
(106 111)
(110 107)
(112 113)
(113 114)
(114 115)
(115 112)
(116 117)
(117 113)
(112 116)
(118 119)
(119 117)
(116 118)
(114 119)
(118 115)
)

// * * * * * * * * * * * * * * * * * * * * * * * * * * * * * * * * * * * * * //


// ************************************************************************* //
