/*--------------------------------*- C++ -*----------------------------------*\
| =========                 |                                                 |
| \\      /  F ield         | OpenFOAM: The Open Source CFD Toolbox           |
|  \\    /   O peration     | Version:  2.2.1                                 |
|   \\  /    A nd           | Web:      www.OpenFOAM.org                      |
|    \\/     M anipulation  |                                                 |
\*---------------------------------------------------------------------------*/
FoamFile
{
    version     2.0;
    format      ascii;
    class       scalarField;
    object      values;
}
// * * * * * * * * * * * * * * * * * * * * * * * * * * * * * * * * * * * * * //


// Data on points
196
(
// y = -3.5h
0.0
0.0
0.0
0.0
0.0
0.0
0.0
0.0
0.0
0.0
0.0
0.0
0.0
0.0
0.0
0.0
0.0
0.0
0.0
0.0
0.0
0.0
0.0
0.0
0.0
0.0
0.0
0.0188332109583
0.0214927544
0.0253116677652
0.0308415501718
0.0369170588969
0.0455996655184
0.0569943722206
0.0685632812855
0.0819003458332
0.0939330356576
0.097190259487
0.0909074150529
0.0867036847861
0.0809906068046
0.0773542226636
0.0770545973087
0.0790971566158
0.081453470713
0.0849937000771
0.0887274964683
0.090801424641
0.0920524280037
0.0928135379242
0.0942818892839
0.0960601183755
0.0961145797295
0.093725225621
0.0910999361067
0.0863574711488
0.0796820291281
0.0728340825009
0.0680392735783
0.0669883992341
0.0677846166362
0.0682055796749
0.0701948194667
0.0748220311927
0.0814846578496
0.087305403756
0.089777486006
0.0900702492283
0.0886180207864
0.0850419721124
0.0824019094174
0.080884382334
0.0804858461137
0.0806599935559
0.0805107997514
0.0805942919869
0.0806890036441
0.0797976097661
0.0779921843533
0.0750400773183
0.0703460477722
0.0647651358247
0.0591487299256
0.0535679651231
0.0487426537564
0.0446697715668
0.0415350372978
0.0390525599574
0.0364258156667
0.0349928353287
0.0350446019039
0.0350519301169
0.0363583476787
0.038002563373
0.0352626756338
0.0279370122797
0.0
0.0

// y = 0.5h
0.0
0.0
0.0
0.0
0.0
0.0
0.0
0.0
0.0
0.0
0.0
0.0
0.0
0.0
0.0
0.0
0.0
0.0
0.0
0.0
0.0
0.0
0.0
0.0
0.0
0.0
0.0
0.0188332109583
0.0214927544
0.0253116677652
0.0308415501718
0.0369170588969
0.0455996655184
0.0569943722206
0.0685632812855
0.0819003458332
0.0939330356576
0.097190259487
0.0909074150529
0.0867036847861
0.0809906068046
0.0773542226636
0.0770545973087
0.0790971566158
0.081453470713
0.0849937000771
0.0887274964683
0.090801424641
0.0920524280037
0.0928135379242
0.0942818892839
0.0960601183755
0.0961145797295
0.093725225621
0.0910999361067
0.0863574711488
0.0796820291281
0.0728340825009
0.0680392735783
0.0669883992341
0.0677846166362
0.0682055796749
0.0701948194667
0.0748220311927
0.0814846578496
0.087305403756
0.089777486006
0.0900702492283
0.0886180207864
0.0850419721124
0.0824019094174
0.080884382334
0.0804858461137
0.0806599935559
0.0805107997514
0.0805942919869
0.0806890036441
0.0797976097661
0.0779921843533
0.0750400773183
0.0703460477722
0.0647651358247
0.0591487299256
0.0535679651231
0.0487426537564
0.0446697715668
0.0415350372978
0.0390525599574
0.0364258156667
0.0349928353287
0.0350446019039
0.0350519301169
0.0363583476787
0.038002563373
0.0352626756338
0.0279370122797
0.0
0.0
)

// ************************************************************************* //

