/*--------------------------------*- C++ -*----------------------------------*\
| =========                 |                                                 |
| \\      /  F ield         | OpenFOAM: The Open Source CFD Toolbox           |
|  \\    /   O peration     | Version:  2.2.1                                 |
|   \\  /    A nd           | Web:      www.OpenFOAM.org                      |
|    \\/     M anipulation  |                                                 |
\*---------------------------------------------------------------------------*/
FoamFile
{
    version     2.0;
    format      ascii;
    class       symmTensorField;
    object      values;
}
// * * * * * * * * * * * * * * * * * * * * * * * * * * * * * * * * * * * * * //


// Data on points
196
(
// y = -3.5h
(   0.000893718 -0.000422069    -4.97e-05   0.001123344 1.75e-05    0.000916504 )
(   0.000893718 -0.000422069    -4.97e-05   0.001123344 1.75e-05    0.000916504 )
(   0.000888452 -0.000380104    -5.55e-05   0.001095022 7.95e-06    0.000915755 )
(   0.000896346 -0.000348127    -6.99e-05   0.001085855 3.05e-06    0.00094026  )
(   0.000917795 -0.000323051    -8.82e-05   0.001093522 1.81e-06    0.000974387 )
(   0.000947202 -0.000292798    -0.000106187    0.001099351 -2.73e-06   0.001007103 )
(   0.000987271 -0.000263422    -0.000124499    0.001103726 -9.35e-06   0.001035945 )
(   0.001028369 -0.000230481    -0.000145115    0.0011192   -1.59e-05   0.001074556 )
(   0.001067379 -0.000200424    -0.00017256 0.001147227 -1.55e-05   0.001125084 )
(   0.001138152 -0.000185168    -0.00019929 0.00118486  -1.64e-05   0.001173955 )
(   0.001223838 -0.000154666    -0.00023275 0.001214195 -2.19e-05   0.001218251 )
(   0.00131638  -0.000118196    -0.000263575    0.001236013 -3.16e-05   0.001269569 )
(   0.001425441 -8.65e-05   -0.000309214    0.001286043 -4.28e-05   0.001340239 )
(   0.001570965 -5.22e-05   -0.000360327    0.001360856 -5.01e-05   0.001421188 )
(   0.001746296 -2.26e-05   -0.000412218    0.001431023 -5.09e-05   0.001506306 )
(   0.00193752  1.28e-05    -0.000465   0.001515801 -4.56e-05   0.001590644 )
(   0.002153263 4.52e-05    -0.000523288    0.001614894 -5.31e-05   0.001683257 )
(   0.002377162 8.48e-05    -0.000589876    0.001710015 -6.09e-05   0.00177081  )
(   0.002642318 0.000119507 -0.000662922    0.00182158  -6.29e-05   0.001874672 )
(   0.002954963 0.000157394 -0.00075373 0.001956884 -6.45e-05   0.001996836 )
(   0.003274531 0.000212039 -0.000854782    0.002080881 -6.95e-05   0.002124925 )
(   0.003629184 0.000262188 -0.000961605    0.002214791 -7.74e-05   0.002251388 )
(   0.004004199 0.000302884 -0.001077959    0.002379002 -8.03e-05   0.002387694 )
(   0.00438365  0.000353674 -0.001187239    0.002538583 -7.98e-05   0.002529031 )
(   0.004743115 0.000402609 -0.001312374    0.002695536 -8.2e-05    0.002680183 )
(   0.005133626 0.00045164  -0.001426867    0.002887647 -8.39e-05   0.00283129  )
(   0.005542053 0.000523431 -0.001536896    0.003094642 -8.14e-05   0.002975183 )
(   0.00597162  0.000598697 -0.001657577    0.003300918 -9.01e-05   0.003108731 )
(   0.00640885  0.000667911 -0.001786392    0.003497151 -0.000103231    0.003258353 )
(   0.006841473 0.000712097 -0.001890537    0.003714762 -9.85e-05   0.003403695 )
(   0.00729204  0.000750908 -0.001998629    0.00394013  -9.27e-05   0.003565291 )
(   0.007740134 0.000800269 -0.002123129    0.004181717 -8.87e-05   0.003732711 )
(   0.008193486 0.00085474  -0.002242932    0.004454701 -8.12e-05   0.003918543 )
(   0.008668702 0.000908548 -0.002349647    0.004739281 -8.18e-05   0.004104042 )
(   0.009211822 0.000956274 -0.002485418    0.005015371 -7.85e-05   0.004282938 )
(   0.009784586 0.001014559 -0.002635397    0.005306416 -6.17e-05   0.004462441 )
(   0.010350336 0.001055736 -0.002785193    0.005592809 -4.45e-05   0.004639329 )
(   0.010891061 0.00111209  -0.002922406    0.00584716  -4.58e-05   0.004832066 )
(   0.011470606 0.001153667 -0.003077292    0.006144604 -3.84e-05   0.005043011 )
(   0.012057727 0.001180523 -0.003229978    0.00649089  -1.24e-05   0.005247933 )
(   0.012591022 0.001221183 -0.00338093 0.006882592 2.18e-05    0.005447349 )
(   0.01316118  0.001259444 -0.003568285    0.0072492   2.59e-05    0.005649918 )
(   0.01373195  0.00130784  -0.003762164    0.007592401 2.56e-05    0.005832788 )
(   0.014295319 0.001375418 -0.003924903    0.007953322 2.4e-05 0.006004948 )
(   0.014902156 0.001449391 -0.004064164    0.00830622  1.09e-05    0.006185932 )
(   0.01545733  0.001497244 -0.004194197    0.008583472 7.28e-06    0.006325359 )
(   0.015975315 0.001487883 -0.004325374    0.008846365 7.48e-06    0.006462315 )
(   0.016469586 0.001485932 -0.004459514    0.009142156 3.3e-06 0.006612834 )
(   0.016958298 0.001540496 -0.00457648 0.009458374 2.58e-05    0.006765522 )
(   0.017482724 0.001595944 -0.004689347    0.009781188 3.48e-05    0.00692678  )
(   0.017984965 0.001688857 -0.004799562    0.010060972 3.87e-05    0.007094393 )
(   0.018460074 0.001785741 -0.004924477    0.010360506 3.96e-05    0.007271682 )
(   0.018877211 0.001829187 -0.00502037 0.010648652 7.19e-05    0.007420713 )
(   0.019272987 0.00186178  -0.005136829    0.010911097 0.000114667 0.007597393 )
(   0.019759304 0.001906396 -0.005254828    0.011128851 0.000130799 0.007793949 )
(   0.020198854 0.001925017 -0.005400993    0.011402757 0.000164691 0.008016532 )
(   0.020636812 0.00192049  -0.005544072    0.011672445 0.00020912  0.008245894 )
(   0.021117068 0.001899627 -0.005670523    0.011898144 0.000249028 0.008416535 )
(   0.021652371 0.00185144  -0.005843967    0.01213384  0.000265173 0.00858204  )
(   0.022141993 0.001801907 -0.005981953    0.012395328 0.000287786 0.008760336 )
(   0.02257292  0.001786928 -0.006099026    0.012622746 0.000284254 0.008947312 )
(   0.0229375   0.001784409 -0.006202103    0.012903525 0.000272095 0.00911878  )
(   0.023362284 0.001820942 -0.006292557    0.013157862 0.000283284 0.009281572 )
(   0.023696909 0.001867944 -0.006373848    0.013389177 0.000309031 0.009405869 )
(   0.024019964 0.001920172 -0.00642489 0.013578066 0.000324852 0.009481135 )
(   0.024406727 0.00195946  -0.006487255    0.013746259 0.000323857 0.009585949 )
(   0.024795551 0.00199176  -0.006543834    0.013896429 0.000339635 0.009659439 )
(   0.024973036 0.002038741 -0.00662181 0.014075416 0.000333044 0.009734854 )
(   0.025215576 0.002147209 -0.006694939    0.014179247 0.000337544 0.009796743 )
(   0.025506855 0.002240297 -0.006733442    0.014233324 0.000369164 0.009847997 )
(   0.025719681 0.002334252 -0.006769053    0.014342334 0.000348603 0.009904654 )
(   0.025934682 0.002390946 -0.006817473    0.014467974 0.000315057 0.009971182 )
(   0.026194432 0.002444198 -0.00682712 0.014688811 0.000310953 0.010032078 )
(   0.026513378 0.002440581 -0.006816019    0.014872953 0.000357307 0.01009183  )
(   0.026939561 0.002384651 -0.006870952    0.015009108 0.000388133 0.010140964 )
(   0.027349846 0.002370053 -0.006903054    0.015125986 0.000408798 0.010196024 )
(   0.027720181 0.002393894 -0.006900577    0.015242138 0.000451926 0.010270061 )
(   0.028045292 0.00238051  -0.006927508    0.015341468 0.000478621 0.010342047 )
(   0.028396851 0.002393504 -0.006995456    0.015529705 0.000446441 0.010374535 )
(   0.02873138  0.002420369 -0.007023384    0.015668101 0.000410911 0.010402772 )
(   0.02916869  0.00252343  -0.007062015    0.015852201 0.000376452 0.010409976 )
(   0.029641437 0.002580652 -0.00711803 0.016070192 0.000301986 0.010432094 )
(   0.030040419 0.002725    -0.007146588    0.016198942 0.000201958 0.010453622 )
(   0.030575613 0.0029  -0.007164672    0.016437296 0.000187946 0.010504528 )
(   0.031121739 0.003093822 -0.007175827    0.016624244 0.000196574 0.010603599 )
(   0.031524503 0.003102743 -0.007198174    0.016845332 0.000267565 0.010622184 )
(   0.031702841 0.00321484  -0.007149806    0.017100614 0.000327475 0.010583286 )
(   0.032082558 0.003299439 -0.007126018    0.01744394  0.000314178 0.010666251 )
(   0.032710979 0.003284277 -0.007066203    0.017902754 0.000336508 0.010715425 )
(   0.033265529 0.003339649 -0.006958847    0.018401789 0.000336905 0.010573504 )
(   0.033788877 0.003233546 -0.006807555    0.018827059 0.000323497 0.010487991 )
(   0.034359516 0.003106564 -0.006546089    0.019258629 0.000299289 0.01024567  )
(   0.035040252 0.002865113 -0.0061991  0.019576185 0.000224755 0.009833337 )
(   0.035462585 0.00304916  -0.005869724    0.019656937 0.000196284 0.009509651 )
(   0.036316643 0.003091008 -0.005776763    0.019994857 5.85e-05    0.010295139 )
(   0.038587811 0.00297257  -0.005182778    0.020008882 -2.87e-05   0.009740417 )
(   0.043823362 0.003338257 -0.003878122    0.018855635 5.01e-05    0.007552266 )
(   0.0 0.0 0.0 0.0 0.0 0.0 )

// y = 0.5h
(   0.000893718 -0.000422069    -4.97e-05   0.001123344 1.75e-05    0.000916504 )
(   0.000893718 -0.000422069    -4.97e-05   0.001123344 1.75e-05    0.000916504 )
(   0.000888452 -0.000380104    -5.55e-05   0.001095022 7.95e-06    0.000915755 )
(   0.000896346 -0.000348127    -6.99e-05   0.001085855 3.05e-06    0.00094026  )
(   0.000917795 -0.000323051    -8.82e-05   0.001093522 1.81e-06    0.000974387 )
(   0.000947202 -0.000292798    -0.000106187    0.001099351 -2.73e-06   0.001007103 )
(   0.000987271 -0.000263422    -0.000124499    0.001103726 -9.35e-06   0.001035945 )
(   0.001028369 -0.000230481    -0.000145115    0.0011192   -1.59e-05   0.001074556 )
(   0.001067379 -0.000200424    -0.00017256 0.001147227 -1.55e-05   0.001125084 )
(   0.001138152 -0.000185168    -0.00019929 0.00118486  -1.64e-05   0.001173955 )
(   0.001223838 -0.000154666    -0.00023275 0.001214195 -2.19e-05   0.001218251 )
(   0.00131638  -0.000118196    -0.000263575    0.001236013 -3.16e-05   0.001269569 )
(   0.001425441 -8.65e-05   -0.000309214    0.001286043 -4.28e-05   0.001340239 )
(   0.001570965 -5.22e-05   -0.000360327    0.001360856 -5.01e-05   0.001421188 )
(   0.001746296 -2.26e-05   -0.000412218    0.001431023 -5.09e-05   0.001506306 )
(   0.00193752  1.28e-05    -0.000465   0.001515801 -4.56e-05   0.001590644 )
(   0.002153263 4.52e-05    -0.000523288    0.001614894 -5.31e-05   0.001683257 )
(   0.002377162 8.48e-05    -0.000589876    0.001710015 -6.09e-05   0.00177081  )
(   0.002642318 0.000119507 -0.000662922    0.00182158  -6.29e-05   0.001874672 )
(   0.002954963 0.000157394 -0.00075373 0.001956884 -6.45e-05   0.001996836 )
(   0.003274531 0.000212039 -0.000854782    0.002080881 -6.95e-05   0.002124925 )
(   0.003629184 0.000262188 -0.000961605    0.002214791 -7.74e-05   0.002251388 )
(   0.004004199 0.000302884 -0.001077959    0.002379002 -8.03e-05   0.002387694 )
(   0.00438365  0.000353674 -0.001187239    0.002538583 -7.98e-05   0.002529031 )
(   0.004743115 0.000402609 -0.001312374    0.002695536 -8.2e-05    0.002680183 )
(   0.005133626 0.00045164  -0.001426867    0.002887647 -8.39e-05   0.00283129  )
(   0.005542053 0.000523431 -0.001536896    0.003094642 -8.14e-05   0.002975183 )
(   0.00597162  0.000598697 -0.001657577    0.003300918 -9.01e-05   0.003108731 )
(   0.00640885  0.000667911 -0.001786392    0.003497151 -0.000103231    0.003258353 )
(   0.006841473 0.000712097 -0.001890537    0.003714762 -9.85e-05   0.003403695 )
(   0.00729204  0.000750908 -0.001998629    0.00394013  -9.27e-05   0.003565291 )
(   0.007740134 0.000800269 -0.002123129    0.004181717 -8.87e-05   0.003732711 )
(   0.008193486 0.00085474  -0.002242932    0.004454701 -8.12e-05   0.003918543 )
(   0.008668702 0.000908548 -0.002349647    0.004739281 -8.18e-05   0.004104042 )
(   0.009211822 0.000956274 -0.002485418    0.005015371 -7.85e-05   0.004282938 )
(   0.009784586 0.001014559 -0.002635397    0.005306416 -6.17e-05   0.004462441 )
(   0.010350336 0.001055736 -0.002785193    0.005592809 -4.45e-05   0.004639329 )
(   0.010891061 0.00111209  -0.002922406    0.00584716  -4.58e-05   0.004832066 )
(   0.011470606 0.001153667 -0.003077292    0.006144604 -3.84e-05   0.005043011 )
(   0.012057727 0.001180523 -0.003229978    0.00649089  -1.24e-05   0.005247933 )
(   0.012591022 0.001221183 -0.00338093 0.006882592 2.18e-05    0.005447349 )
(   0.01316118  0.001259444 -0.003568285    0.0072492   2.59e-05    0.005649918 )
(   0.01373195  0.00130784  -0.003762164    0.007592401 2.56e-05    0.005832788 )
(   0.014295319 0.001375418 -0.003924903    0.007953322 2.4e-05 0.006004948 )
(   0.014902156 0.001449391 -0.004064164    0.00830622  1.09e-05    0.006185932 )
(   0.01545733  0.001497244 -0.004194197    0.008583472 7.28e-06    0.006325359 )
(   0.015975315 0.001487883 -0.004325374    0.008846365 7.48e-06    0.006462315 )
(   0.016469586 0.001485932 -0.004459514    0.009142156 3.3e-06 0.006612834 )
(   0.016958298 0.001540496 -0.00457648 0.009458374 2.58e-05    0.006765522 )
(   0.017482724 0.001595944 -0.004689347    0.009781188 3.48e-05    0.00692678  )
(   0.017984965 0.001688857 -0.004799562    0.010060972 3.87e-05    0.007094393 )
(   0.018460074 0.001785741 -0.004924477    0.010360506 3.96e-05    0.007271682 )
(   0.018877211 0.001829187 -0.00502037 0.010648652 7.19e-05    0.007420713 )
(   0.019272987 0.00186178  -0.005136829    0.010911097 0.000114667 0.007597393 )
(   0.019759304 0.001906396 -0.005254828    0.011128851 0.000130799 0.007793949 )
(   0.020198854 0.001925017 -0.005400993    0.011402757 0.000164691 0.008016532 )
(   0.020636812 0.00192049  -0.005544072    0.011672445 0.00020912  0.008245894 )
(   0.021117068 0.001899627 -0.005670523    0.011898144 0.000249028 0.008416535 )
(   0.021652371 0.00185144  -0.005843967    0.01213384  0.000265173 0.00858204  )
(   0.022141993 0.001801907 -0.005981953    0.012395328 0.000287786 0.008760336 )
(   0.02257292  0.001786928 -0.006099026    0.012622746 0.000284254 0.008947312 )
(   0.0229375   0.001784409 -0.006202103    0.012903525 0.000272095 0.00911878  )
(   0.023362284 0.001820942 -0.006292557    0.013157862 0.000283284 0.009281572 )
(   0.023696909 0.001867944 -0.006373848    0.013389177 0.000309031 0.009405869 )
(   0.024019964 0.001920172 -0.00642489 0.013578066 0.000324852 0.009481135 )
(   0.024406727 0.00195946  -0.006487255    0.013746259 0.000323857 0.009585949 )
(   0.024795551 0.00199176  -0.006543834    0.013896429 0.000339635 0.009659439 )
(   0.024973036 0.002038741 -0.00662181 0.014075416 0.000333044 0.009734854 )
(   0.025215576 0.002147209 -0.006694939    0.014179247 0.000337544 0.009796743 )
(   0.025506855 0.002240297 -0.006733442    0.014233324 0.000369164 0.009847997 )
(   0.025719681 0.002334252 -0.006769053    0.014342334 0.000348603 0.009904654 )
(   0.025934682 0.002390946 -0.006817473    0.014467974 0.000315057 0.009971182 )
(   0.026194432 0.002444198 -0.00682712 0.014688811 0.000310953 0.010032078 )
(   0.026513378 0.002440581 -0.006816019    0.014872953 0.000357307 0.01009183  )
(   0.026939561 0.002384651 -0.006870952    0.015009108 0.000388133 0.010140964 )
(   0.027349846 0.002370053 -0.006903054    0.015125986 0.000408798 0.010196024 )
(   0.027720181 0.002393894 -0.006900577    0.015242138 0.000451926 0.010270061 )
(   0.028045292 0.00238051  -0.006927508    0.015341468 0.000478621 0.010342047 )
(   0.028396851 0.002393504 -0.006995456    0.015529705 0.000446441 0.010374535 )
(   0.02873138  0.002420369 -0.007023384    0.015668101 0.000410911 0.010402772 )
(   0.02916869  0.00252343  -0.007062015    0.015852201 0.000376452 0.010409976 )
(   0.029641437 0.002580652 -0.00711803 0.016070192 0.000301986 0.010432094 )
(   0.030040419 0.002725    -0.007146588    0.016198942 0.000201958 0.010453622 )
(   0.030575613 0.0029  -0.007164672    0.016437296 0.000187946 0.010504528 )
(   0.031121739 0.003093822 -0.007175827    0.016624244 0.000196574 0.010603599 )
(   0.031524503 0.003102743 -0.007198174    0.016845332 0.000267565 0.010622184 )
(   0.031702841 0.00321484  -0.007149806    0.017100614 0.000327475 0.010583286 )
(   0.032082558 0.003299439 -0.007126018    0.01744394  0.000314178 0.010666251 )
(   0.032710979 0.003284277 -0.007066203    0.017902754 0.000336508 0.010715425 )
(   0.033265529 0.003339649 -0.006958847    0.018401789 0.000336905 0.010573504 )
(   0.033788877 0.003233546 -0.006807555    0.018827059 0.000323497 0.010487991 )
(   0.034359516 0.003106564 -0.006546089    0.019258629 0.000299289 0.01024567  )
(   0.035040252 0.002865113 -0.0061991  0.019576185 0.000224755 0.009833337 )
(   0.035462585 0.00304916  -0.005869724    0.019656937 0.000196284 0.009509651 )
(   0.036316643 0.003091008 -0.005776763    0.019994857 5.85e-05    0.010295139 )
(   0.038587811 0.00297257  -0.005182778    0.020008882 -2.87e-05   0.009740417 )
(   0.043823362 0.003338257 -0.003878122    0.018855635 5.01e-05    0.007552266 )
(   0.0 0.0 0.0 0.0 0.0 0.0 )

)

// * * * * * * * * * * * * * * * * * * * * * * * * * * * * * * * * * * * * * //
