/*--------------------------------*- C++ -*----------------------------------*\
| =========                 |                                                 |
| \\      /  F ield         | OpenFOAM: The Open Source CFD Toolbox           |
|  \\    /   O peration     | Version:  2.2.1                                 |
|   \\  /    A nd           | Web:      www.OpenFOAM.org                      |
|    \\/     M anipulation  |                                                 |
\*---------------------------------------------------------------------------*/
FoamFile
{
    version     2.0;
    format      ascii;
    class       vectorField;
    object      values;
}
// * * * * * * * * * * * * * * * * * * * * * * * * * * * * * * * * * * * * * //

196
(
// y = -3.5h
(   2.011870102 0.0 0.0 )
(   2.011870102 0.0 0.0 )
(   2.011870102 0.0 0.0 )
(   2.011870102 0.0 0.0 )
(   2.01215353  0.0 -0.014387506    )
(   2.011467836 0.0 -0.014991119    )
(   2.010677585 0.0 -0.015643273    )
(   2.00978051  0.0 -0.01564277 )
(   2.009388177 0.0 -0.015386373    )
(   2.00862322  0.0 -0.015514435    )
(   2.007095326 0.0 -0.01569298 )
(   2.005457623 0.0 -0.015818923    )
(   2.004015222 0.0 -0.015591429    )
(   2.002507681 0.0 -0.015337373    )
(   2.000654862 0.0 -0.015361722    )
(   1.998205818 0.0 -0.015627801    )
(   1.995879778 0.0 -0.015609536    )
(   1.993451182 0.0 -0.015560288    )
(   1.990542296 0.0 -0.015808683    )
(   1.986889488 0.0 -0.016005858    )
(   1.983331445 0.0 -0.016037137    )
(   1.980009917 0.0 -0.015698892    )
(   1.976044988 0.0 -0.015626597    )
(   1.971349379 0.0 -0.015811013    )
(   1.966392503 0.0 -0.015843509    )
(   1.961350408 0.0 -0.015788725    )
(   1.956109344 0.0 -0.015397367    )
(   1.950538563 0.0 -0.01491575 )
(   1.944729475 0.0 -0.014920778    )
(   1.938788421 0.0 -0.014887407    )
(   1.932750984 0.0 -0.014649343    )
(   1.926038808 0.0 -0.014698242    )
(   1.919113943 0.0 -0.014824863    )
(   1.912331305 0.0 -0.014918529    )
(   1.905228614 0.0 -0.014925753    )
(   1.897815656 0.0 -0.014905666    )
(   1.890236359 0.0 -0.014771669    )
(   1.882453797 0.0 -0.014859915    )
(   1.874628975 0.0 -0.014685834    )
(   1.866680934 0.0 -0.014400287    )
(   1.858298261 0.0 -0.014379872    )
(   1.849957264 0.0 -0.014347614    )
(   1.84181604  0.0 -0.014079518    )
(   1.83357795  0.0 -0.013753674    )
(   1.824920139 0.0 -0.013327815    )
(   1.816300271 0.0 -0.013264783    )
(   1.807599234 0.0 -0.013011241    )
(   1.79868938  0.0 -0.012727426    )
(   1.789936522 0.0 -0.012376483    )
(   1.781194789 0.0 -0.012105131    )
(   1.772173014 0.0 -0.011907338    )
(   1.762963155 0.0 -0.011641825    )
(   1.753635213 0.0 -0.011395633    )
(   1.744418276 0.0 -0.011040571    )
(   1.735045405 0.0 -0.010572989    )
(   1.725634926 0.0 -0.010177466    )
(   1.716115375 0.0 -0.00986369 )
(   1.706422583 0.0 -0.0097508  )
(   1.696642445 0.0 -0.009527811    )
(   1.686599966 0.0 -0.009122691    )
(   1.676271091 0.0 -0.008617599    )
(   1.665747502 0.0 -0.008069083    )
(   1.654964102 0.0 -0.007571809    )
(   1.644212565 0.0 -0.006927764    )
(   1.633408076 0.0 -0.006362313    )
(   1.62238549  0.0 -0.00615438 )
(   1.611121184 0.0 -0.005857112    )
(   1.599758342 0.0 -0.005513219    )
(   1.588287674 0.0 -0.005249227    )
(   1.576514701 0.0 -0.004920436    )
(   1.564596112 0.0 -0.004773759    )
(   1.552433781 0.0 -0.004705507    )
(   1.53996599  0.0 -0.004432951    )
(   1.527337213 0.0 -0.004189156    )
(   1.514663846 0.0 -0.004135475    )
(   1.501880831 0.0 -0.004170598    )
(   1.488738739 0.0 -0.004153214    )
(   1.475189298 0.0 -0.004079716    )
(   1.461304072 0.0 -0.003752988    )
(   1.447282615 0.0 -0.003381011    )
(   1.432891742 0.0 -0.00328443 )
(   1.418086385 0.0 -0.003194923    )
(   1.402708473 0.0 -0.003096142    )
(   1.38673436  0.0 -0.00291643 )
(   1.370241571 0.0 -0.002694865    )
(   1.35295272  0.0 -0.002457401    )
(   1.334886247 0.0 -0.002016541    )
(   1.315845035 0.0 -0.001895546    )
(   1.295480219 0.0 -0.00169385 )
(   1.27368083  0.0 -0.001648394    )
(   1.249937003 0.0 -0.001651673    )
(   1.223489609 0.0 -0.001648882    )
(   1.193367619 0.0 -0.001767525    )
(   1.157318973 0.0 -0.001776327    )
(   1.088454313 0.0 -0.001658375    )
(   0.862332791 0.0 -0.001313855    )
(   0.63621127  0.0 -0.000969335    )
(   0.0 0.0 0.0 )

// y = 0.5h
(   2.011870102 0.0 0.0 )
(   2.011870102 0.0 0.0 )
(   2.011870102 0.0 0.0 )
(   2.011870102 0.0 0.0 )
(   2.01215353  0.0 -0.014387506    )
(   2.011467836 0.0 -0.014991119    )
(   2.010677585 0.0 -0.015643273    )
(   2.00978051  0.0 -0.01564277 )
(   2.009388177 0.0 -0.015386373    )
(   2.00862322  0.0 -0.015514435    )
(   2.007095326 0.0 -0.01569298 )
(   2.005457623 0.0 -0.015818923    )
(   2.004015222 0.0 -0.015591429    )
(   2.002507681 0.0 -0.015337373    )
(   2.000654862 0.0 -0.015361722    )
(   1.998205818 0.0 -0.015627801    )
(   1.995879778 0.0 -0.015609536    )
(   1.993451182 0.0 -0.015560288    )
(   1.990542296 0.0 -0.015808683    )
(   1.986889488 0.0 -0.016005858    )
(   1.983331445 0.0 -0.016037137    )
(   1.980009917 0.0 -0.015698892    )
(   1.976044988 0.0 -0.015626597    )
(   1.971349379 0.0 -0.015811013    )
(   1.966392503 0.0 -0.015843509    )
(   1.961350408 0.0 -0.015788725    )
(   1.956109344 0.0 -0.015397367    )
(   1.950538563 0.0 -0.01491575 )
(   1.944729475 0.0 -0.014920778    )
(   1.938788421 0.0 -0.014887407    )
(   1.932750984 0.0 -0.014649343    )
(   1.926038808 0.0 -0.014698242    )
(   1.919113943 0.0 -0.014824863    )
(   1.912331305 0.0 -0.014918529    )
(   1.905228614 0.0 -0.014925753    )
(   1.897815656 0.0 -0.014905666    )
(   1.890236359 0.0 -0.014771669    )
(   1.882453797 0.0 -0.014859915    )
(   1.874628975 0.0 -0.014685834    )
(   1.866680934 0.0 -0.014400287    )
(   1.858298261 0.0 -0.014379872    )
(   1.849957264 0.0 -0.014347614    )
(   1.84181604  0.0 -0.014079518    )
(   1.83357795  0.0 -0.013753674    )
(   1.824920139 0.0 -0.013327815    )
(   1.816300271 0.0 -0.013264783    )
(   1.807599234 0.0 -0.013011241    )
(   1.79868938  0.0 -0.012727426    )
(   1.789936522 0.0 -0.012376483    )
(   1.781194789 0.0 -0.012105131    )
(   1.772173014 0.0 -0.011907338    )
(   1.762963155 0.0 -0.011641825    )
(   1.753635213 0.0 -0.011395633    )
(   1.744418276 0.0 -0.011040571    )
(   1.735045405 0.0 -0.010572989    )
(   1.725634926 0.0 -0.010177466    )
(   1.716115375 0.0 -0.00986369 )
(   1.706422583 0.0 -0.0097508  )
(   1.696642445 0.0 -0.009527811    )
(   1.686599966 0.0 -0.009122691    )
(   1.676271091 0.0 -0.008617599    )
(   1.665747502 0.0 -0.008069083    )
(   1.654964102 0.0 -0.007571809    )
(   1.644212565 0.0 -0.006927764    )
(   1.633408076 0.0 -0.006362313    )
(   1.62238549  0.0 -0.00615438 )
(   1.611121184 0.0 -0.005857112    )
(   1.599758342 0.0 -0.005513219    )
(   1.588287674 0.0 -0.005249227    )
(   1.576514701 0.0 -0.004920436    )
(   1.564596112 0.0 -0.004773759    )
(   1.552433781 0.0 -0.004705507    )
(   1.53996599  0.0 -0.004432951    )
(   1.527337213 0.0 -0.004189156    )
(   1.514663846 0.0 -0.004135475    )
(   1.501880831 0.0 -0.004170598    )
(   1.488738739 0.0 -0.004153214    )
(   1.475189298 0.0 -0.004079716    )
(   1.461304072 0.0 -0.003752988    )
(   1.447282615 0.0 -0.003381011    )
(   1.432891742 0.0 -0.00328443 )
(   1.418086385 0.0 -0.003194923    )
(   1.402708473 0.0 -0.003096142    )
(   1.38673436  0.0 -0.00291643 )
(   1.370241571 0.0 -0.002694865    )
(   1.35295272  0.0 -0.002457401    )
(   1.334886247 0.0 -0.002016541    )
(   1.315845035 0.0 -0.001895546    )
(   1.295480219 0.0 -0.00169385 )
(   1.27368083  0.0 -0.001648394    )
(   1.249937003 0.0 -0.001651673    )
(   1.223489609 0.0 -0.001648882    )
(   1.193367619 0.0 -0.001767525    )
(   1.157318973 0.0 -0.001776327    )
(   1.088454313 0.0 -0.001658375    )
(   0.862332791 0.0 -0.001313855    )
(   0.63621127  0.0 -0.000969335    )
(   0.0 0.0 0.0 )

)

// * * * * * * * * * * * * * * * * * * * * * * * * * * * * * * * * * * * * * //