/*--------------------------------*- C++ -*----------------------------------*\
| =========                 |                                                 |
| \\      /  F ield         | OpenFOAM: The Open Source CFD Toolbox           |
|  \\    /   O peration     | Version:  2.1.1                                 |
|   \\  /    A nd           | Web:      www.OpenFOAM.org                      |
|    \\/     M anipulation  |                                                 |
\*---------------------------------------------------------------------------*/
FoamFile
{
    version     2.0;
    format      ascii;
    class       volVectorField;
    object      U;
}
// * * * * * * * * * * * * * * * * * * * * * * * * * * * * * * * * * * * * * //

dimensions      [0 1 -1 0 0 0 0];

internalField   uniform (1 0 0);

boundaryField
{
    inlet
    {
        type            nestedBlendedVelocity;
        value           uniform (0 0 0);   //placeholder
    }
    outlet
    {
        type            nestedBlendedVelocity;
        value           uniform (0 0 0);   //placeholder
    }
    ground
    {
        type            fixedValue;
        value           uniform (0 0 0);
    }
    top
    {
        type           symmetryPlane;
    }
    side1
    {
        type            cyclic;
    }
    side2
    {
        type            cyclic;
    }
    cubes
    {
        type            fixedValue;
        value           uniform (0 0 0);
    }
}

// ************************************************************************* //
