/*--------------------------------*- C++ -*----------------------------------*\
| =========                 |                                                 |
| \\      /  F ield         | OpenFOAM: The Open Source CFD Toolbox           |
|  \\    /   O peration     | Version:  2.2.1                                |
|   \\  /    A nd           | Web:      www.OpenFOAM.org                      |
|    \\/     M anipulation  |                                                 |
\*---------------------------------------------------------------------------*/
FoamFile
{
    version     2.0;
    format      ascii;
    class       dictionary;
    location    "system";
    object      fvSolution;
}
// * * * * * * * * * * * * * * * * * * * * * * * * * * * * * * * * * * * * * //

solvers
{
    p_rgh
    {
        solver           GAMG;
        tolerance        1e-6;
        relTol           0.01;
        smoother         DICGaussSeidel;
        cacheAgglomeration true;
        nCellsInCoarsestLevel 10;
        agglomerator     faceAreaPair;
        mergeLevels      1;
    }

    p_rghFinal
    {
        solver           GAMG;
        tolerance        1e-7;
        relTol           0;
        smoother         DICGaussSeidel;
        cacheAgglomeration true;
        nCellsInCoarsestLevel 10;
        agglomerator     faceAreaPair;
        mergeLevels      1;
    }
    
    p
    {
        solver           GAMG;
        tolerance        1e-6;
        relTol           0.01;
        smoother         DICGaussSeidel;
        cacheAgglomeration true;
        nCellsInCoarsestLevel 10;
        agglomerator     faceAreaPair;
        mergeLevels      1;
    }

    pFinal
    {
        solver           GAMG;
        tolerance        1e-7;
        relTol           0;
        smoother         DICGaussSeidel;
        cacheAgglomeration true;
        nCellsInCoarsestLevel 10;
        agglomerator     faceAreaPair;
        mergeLevels      1;
    }
    
    "(U|k|nuSgs|T)"
    {
        solver          PBiCG;
        preconditioner  DILU;
        tolerance       1e-6;
        relTol          0.1;
    }

    "(U|k|nuSgs|T)Final"
    {
        solver          PBiCG;
        preconditioner  DILU;
        tolerance       1e-6;
        relTol          0;
    }
    
    "(Sa|Sb|Sc|Sla)"
    {
        solver          PBiCG;
        preconditioner  DILU;
        tolerance       1e-5;
        relTol          0.1;
    }

    "(Sa|Sb|Sc|Sla)Final"
    {
        solver          PBiCG;
        preconditioner  DILU;
        tolerance       1e-5;
        relTol          0;
    }
}

// PISO
// {
//     nCorrectors     2;
//     nNonOrthogonalCorrectors 0;
// }

PIMPLE
{
    momentumPredictor yes;
    nOuterCorrectors 1;
    nCorrectors     1;
    nNonOrthogonalCorrectors 0;
    pRefCell        0;
    pRefValue       0;
}

relaxationFactors
{
    fields
    {
        p_rgh   0.7;
    }
    equations
    {
        U     0.3;
        T     0.5;
        k     0.7;
    }
}

// ************************************************************************* //
