/*--------------------------------*- C++ -*----------------------------------*\
| =========                 |                                                 |
| \\      /  F ield         | OpenFOAM: The Open Source CFD Toolbox           |
|  \\    /   O peration     | Version:  2.2.1                                 |
|   \\  /    A nd           | Web:      www.OpenFOAM.org                      |
|    \\/     M anipulation  |                                                 |
\*---------------------------------------------------------------------------*/
FoamFile
{
    version     2.0;
    format      ascii;
    class       dictionary;
    object      topoSetDict;
}

// * * * * * * * * * * * * * * * * * * * * * * * * * * * * * * * * * * * * * //

actions
(
    {
        name    gndboxLevel02;
        type    cellSet;
        action  new;
        source  boxToCell;
        sourceInfo
        {
            box (0.0 -0.3 0.0)(2.4  0.3 0.2);
//             box (0.0 -0.3 0.0)(2.4  0.3 0.17);
        }
    }
);

// ************************************************************************* //
