/*--------------------------------*- C++ -*----------------------------------*\
| =========                 |                                                 |
| \\      /  F ield         | OpenFOAM: The Open Source CFD Toolbox           |
|  \\    /   O peration     | Version:  2.3.0                                 |
|   \\  /    A nd           | Web:      www.OpenFOAM.org                      |
|    \\/     M anipulation  |                                                 |
\*---------------------------------------------------------------------------*/
FoamFile
{
    version     2.0;
    format      ascii;
    class       volScalarField;
    object      Sla;
}
// * * * * * * * * * * * * * * * * * * * * * * * * * * * * * * * * * * * * * //

dimensions      [0 0 0 0 0 0 0];

internalField   uniform 0;

boundaryField
{
    inlet
    {
        type            fixedValue;
        value           uniform 0;
    }

    outlet
    {
        type            zeroGradient;
    }
    front
    {
        type            fixedValue;
        value           uniform 0;
    }
    heatedplate01
    {
        type            fixedValue;
        value           uniform 0;
    }
    heatedplate02
    {
        type            fixedValue;
        value           uniform 0;
    }
    heatedplate03
    {
        type            fixedValue;
        value           uniform 0;
    }
    rear
    {
        type            fixedValue;
        value           uniform 0;
    }
    top
    {
        type           symmetryPlane;
    }
    side1
    {
        type            cyclic;
    }
    side2
    {
        type            cyclic;
    }
}


// ************************************************************************* //
