/*--------------------------------*- C++ -*----------------------------------*\
| =========                 |                                                 |
| \\      /  F ield         | OpenFOAM: The Open Source CFD Toolbox           |
|  \\    /   O peration     | Version:  2.2.1                                 |
|   \\  /    A nd           | Web:      www.OpenFOAM.org                      |
|    \\/     M anipulation  |                                                 |
\*---------------------------------------------------------------------------*/
FoamFile
{
    version     2.0;
    format      ascii;
    class       scalarField;
    object      values;
}
// * * * * * * * * * * * * * * * * * * * * * * * * * * * * * * * * * * * * * //


// Data on points
196
(

//minz
0
0
0
0
0
0
0
0
0
0
0
0
0
0
0
0
0
0
0
0
0
0
0
0
0
0
0
0.0188332109583392
0.0214927544000181
0.0253116677651615
0.0308415501718449
0.0369170588969065
0.0455996655183811
0.0569943722205687
0.0685632812854847
0.0819003458331592
0.0939330356576082
0.0971902594869840
0.0909074150528894
0.0867036847861102
0.0809906068045854
0.0773542226635995
0.0770545973086974
0.0790971566158302
0.0814534707130290
0.0849937000770627
0.0887274964682553
0.0908014246410052
0.0920524280037084
0.0928135379241912
0.0942818892838729
0.0960601183755316
0.0961145797295069
0.0937252256209770
0.0910999361067156
0.0863574711487907
0.0796820291280966
0.0728340825009350
0.0680392735783438
0.0669883992341131
0.0677846166362059
0.0682055796748882
0.0701948194666583
0.0748220311926680
0.0814846578495577
0.0873054037559551
0.0897774860059911
0.0900702492282748
0.0886180207864099
0.0850419721123940
0.0824019094174022
0.0808843823339980
0.0804858461137480
0.0806599935558946
0.0805107997514145
0.0805942919868893
0.0806890036440561
0.0797976097661016
0.0779921843532998
0.0750400773183009
0.0703460477721933
0.0647651358247360
0.0591487299256328
0.0535679651230959
0.0487426537563912
0.0446697715668204
0.0415350372978334
0.0390525599574215
0.0364258156667404
0.0349928353287251
0.0350446019038997
0.0350519301169460
0.0363583476787217
0.0380025633729921
0.0352626756337546
0.0279370122797118
0
0

// maxz
0
0
0
0
0
0
0
0
0
0
0
0
0
0
0
0
0
0
0
0
0
0
0
0
0
0
0
0.0188332109583392
0.0214927544000181
0.0253116677651615
0.0308415501718449
0.0369170588969065
0.0455996655183811
0.0569943722205687
0.0685632812854847
0.0819003458331592
0.0939330356576082
0.0971902594869840
0.0909074150528894
0.0867036847861102
0.0809906068045854
0.0773542226635995
0.0770545973086974
0.0790971566158302
0.0814534707130290
0.0849937000770627
0.0887274964682553
0.0908014246410052
0.0920524280037084
0.0928135379241912
0.0942818892838729
0.0960601183755316
0.0961145797295069
0.0937252256209770
0.0910999361067156
0.0863574711487907
0.0796820291280966
0.0728340825009350
0.0680392735783438
0.0669883992341131
0.0677846166362059
0.0682055796748882
0.0701948194666583
0.0748220311926680
0.0814846578495577
0.0873054037559551
0.0897774860059911
0.0900702492282748
0.0886180207864099
0.0850419721123940
0.0824019094174022
0.0808843823339980
0.0804858461137480
0.0806599935558946
0.0805107997514145
0.0805942919868893
0.0806890036440561
0.0797976097661016
0.0779921843532998
0.0750400773183009
0.0703460477721933
0.0647651358247360
0.0591487299256328
0.0535679651230959
0.0487426537563912
0.0446697715668204
0.0415350372978334
0.0390525599574215
0.0364258156667404
0.0349928353287251
0.0350446019038997
0.0350519301169460
0.0363583476787217
0.0380025633729921
0.0352626756337546
0.0279370122797118
0
0
)

// ************************************************************************* //
