/*--------------------------------*- C++ -*----------------------------------*\
| =========                 |                                                 |
| \\      /  F ield         | OpenFOAM: The Open Source CFD Toolbox           |
|  \\    /   O peration     | Version:  2.2.1                                 |
|   \\  /    A nd           | Web:      www.OpenFOAM.org                      |
|    \\/     M anipulation  |                                                 |
\*---------------------------------------------------------------------------*/
FoamFile
{
    version     2.0;
    format      ascii;
    class       vectorField;
    object      values;
}
// * * * * * * * * * * * * * * * * * * * * * * * * * * * * * * * * * * * * * //


// Data on points
196
(

//minz
(	2.011870102	0	0	)
(	2.011870102	0	0	)
(	2.011870102	0	0	)
(	2.011870102	0	0	)
(	2.01215353	-0.014387506	0	)
(	2.011467836	-0.014991119	0	)
(	2.010677585	-0.015643273	0	)
(	2.00978051	-0.01564277	0	)
(	2.009388177	-0.015386373	0	)
(	2.00862322	-0.015514435	0	)
(	2.007095326	-0.01569298	0	)
(	2.005457623	-0.015818923	0	)
(	2.004015222	-0.015591429	0	)
(	2.002507681	-0.015337373	0	)
(	2.000654862	-0.015361722	0	)
(	1.998205818	-0.015627801	0	)
(	1.995879778	-0.015609536	0	)
(	1.993451182	-0.015560288	0	)
(	1.990542296	-0.015808683	0	)
(	1.986889488	-0.016005858	0	)
(	1.983331445	-0.016037137	0	)
(	1.980009917	-0.015698892	0	)
(	1.976044988	-0.015626597	0	)
(	1.971349379	-0.015811013	0	)
(	1.966392503	-0.015843509	0	)
(	1.961350408	-0.015788725	0	)
(	1.956109344	-0.015397367	0	)
(	1.950538563	-0.01491575	0	)
(	1.944729475	-0.014920778	0	)
(	1.938788421	-0.014887407	0	)
(	1.932750984	-0.014649343	0	)
(	1.926038808	-0.014698242	0	)
(	1.919113943	-0.014824863	0	)
(	1.912331305	-0.014918529	0	)
(	1.905228614	-0.014925753	0	)
(	1.897815656	-0.014905666	0	)
(	1.890236359	-0.014771669	0	)
(	1.882453797	-0.014859915	0	)
(	1.874628975	-0.014685834	0	)
(	1.866680934	-0.014400287	0	)
(	1.858298261	-0.014379872	0	)
(	1.849957264	-0.014347614	0	)
(	1.84181604	-0.014079518	0	)
(	1.83357795	-0.013753674	0	)
(	1.824920139	-0.013327815	0	)
(	1.816300271	-0.013264783	0	)
(	1.807599234	-0.013011241	0	)
(	1.79868938	-0.012727426	0	)
(	1.789936522	-0.012376483	0	)
(	1.781194789	-0.012105131	0	)
(	1.772173014	-0.011907338	0	)
(	1.762963155	-0.011641825	0	)
(	1.753635213	-0.011395633	0	)
(	1.744418276	-0.011040571	0	)
(	1.735045405	-0.010572989	0	)
(	1.725634926	-0.010177466	0	)
(	1.716115375	-0.00986369	0	)
(	1.706422583	-0.0097508	0	)
(	1.696642445	-0.009527811	0	)
(	1.686599966	-0.009122691	0	)
(	1.676271091	-0.008617599	0	)
(	1.665747502	-0.008069083	0	)
(	1.654964102	-0.007571809	0	)
(	1.644212565	-0.006927764	0	)
(	1.633408076	-0.006362313	0	)
(	1.62238549	-0.00615438	0	)
(	1.611121184	-0.005857112	0	)
(	1.599758342	-0.005513219	0	)
(	1.588287674	-0.005249227	0	)
(	1.576514701	-0.004920436	0	)
(	1.564596112	-0.004773759	0	)
(	1.552433781	-0.004705507	0	)
(	1.53996599	-0.004432951	0	)
(	1.527337213	-0.004189156	0	)
(	1.514663846	-0.004135475	0	)
(	1.501880831	-0.004170598	0	)
(	1.488738739	-0.004153214	0	)
(	1.475189298	-0.004079716	0	)
(	1.461304072	-0.003752988	0	)
(	1.447282615	-0.003381011	0	)
(	1.432891742	-0.00328443	0	)
(	1.418086385	-0.003194923	0	)
(	1.402708473	-0.003096142	0	)
(	1.38673436	-0.00291643	0	)
(	1.370241571	-0.002694865	0	)
(	1.35295272	-0.002457401	0	)
(	1.334886247	-0.002016541	0	)
(	1.315845035	-0.001895546	0	)
(	1.295480219	-0.00169385	0	)
(	1.27368083	-0.001648394	0	)
(	1.249937003	-0.001651673	0	)
(	1.223489609	-0.001648882	0	)
(	1.193367619	-0.001767525	0	)
(	1.157318973	-0.001776327	0	)
(	1.088454313	-0.001658375	0	)
(	0.862332791	-0.001313855	0	)
(	0.63621127	-0.000969335	0	)
(	0	0	0	)

// maxz
(	2.011870102	0	0	)
(	2.011870102	0	0	)
(	2.011870102	0	0	)
(	2.011870102	0	0	)
(	2.01215353	-0.014387506	0	)
(	2.011467836	-0.014991119	0	)
(	2.010677585	-0.015643273	0	)
(	2.00978051	-0.01564277	0	)
(	2.009388177	-0.015386373	0	)
(	2.00862322	-0.015514435	0	)
(	2.007095326	-0.01569298	0	)
(	2.005457623	-0.015818923	0	)
(	2.004015222	-0.015591429	0	)
(	2.002507681	-0.015337373	0	)
(	2.000654862	-0.015361722	0	)
(	1.998205818	-0.015627801	0	)
(	1.995879778	-0.015609536	0	)
(	1.993451182	-0.015560288	0	)
(	1.990542296	-0.015808683	0	)
(	1.986889488	-0.016005858	0	)
(	1.983331445	-0.016037137	0	)
(	1.980009917	-0.015698892	0	)
(	1.976044988	-0.015626597	0	)
(	1.971349379	-0.015811013	0	)
(	1.966392503	-0.015843509	0	)
(	1.961350408	-0.015788725	0	)
(	1.956109344	-0.015397367	0	)
(	1.950538563	-0.01491575	0	)
(	1.944729475	-0.014920778	0	)
(	1.938788421	-0.014887407	0	)
(	1.932750984	-0.014649343	0	)
(	1.926038808	-0.014698242	0	)
(	1.919113943	-0.014824863	0	)
(	1.912331305	-0.014918529	0	)
(	1.905228614	-0.014925753	0	)
(	1.897815656	-0.014905666	0	)
(	1.890236359	-0.014771669	0	)
(	1.882453797	-0.014859915	0	)
(	1.874628975	-0.014685834	0	)
(	1.866680934	-0.014400287	0	)
(	1.858298261	-0.014379872	0	)
(	1.849957264	-0.014347614	0	)
(	1.84181604	-0.014079518	0	)
(	1.83357795	-0.013753674	0	)
(	1.824920139	-0.013327815	0	)
(	1.816300271	-0.013264783	0	)
(	1.807599234	-0.013011241	0	)
(	1.79868938	-0.012727426	0	)
(	1.789936522	-0.012376483	0	)
(	1.781194789	-0.012105131	0	)
(	1.772173014	-0.011907338	0	)
(	1.762963155	-0.011641825	0	)
(	1.753635213	-0.011395633	0	)
(	1.744418276	-0.011040571	0	)
(	1.735045405	-0.010572989	0	)
(	1.725634926	-0.010177466	0	)
(	1.716115375	-0.00986369	0	)
(	1.706422583	-0.0097508	0	)
(	1.696642445	-0.009527811	0	)
(	1.686599966	-0.009122691	0	)
(	1.676271091	-0.008617599	0	)
(	1.665747502	-0.008069083	0	)
(	1.654964102	-0.007571809	0	)
(	1.644212565	-0.006927764	0	)
(	1.633408076	-0.006362313	0	)
(	1.62238549	-0.00615438	0	)
(	1.611121184	-0.005857112	0	)
(	1.599758342	-0.005513219	0	)
(	1.588287674	-0.005249227	0	)
(	1.576514701	-0.004920436	0	)
(	1.564596112	-0.004773759	0	)
(	1.552433781	-0.004705507	0	)
(	1.53996599	-0.004432951	0	)
(	1.527337213	-0.004189156	0	)
(	1.514663846	-0.004135475	0	)
(	1.501880831	-0.004170598	0	)
(	1.488738739	-0.004153214	0	)
(	1.475189298	-0.004079716	0	)
(	1.461304072	-0.003752988	0	)
(	1.447282615	-0.003381011	0	)
(	1.432891742	-0.00328443	0	)
(	1.418086385	-0.003194923	0	)
(	1.402708473	-0.003096142	0	)
(	1.38673436	-0.00291643	0	)
(	1.370241571	-0.002694865	0	)
(	1.35295272	-0.002457401	0	)
(	1.334886247	-0.002016541	0	)
(	1.315845035	-0.001895546	0	)
(	1.295480219	-0.00169385	0	)
(	1.27368083	-0.001648394	0	)
(	1.249937003	-0.001651673	0	)
(	1.223489609	-0.001648882	0	)
(	1.193367619	-0.001767525	0	)
(	1.157318973	-0.001776327	0	)
(	1.088454313	-0.001658375	0	)
(	0.862332791	-0.001313855	0	)
(	0.63621127	-0.000969335	0	)
(	0	0	0	)
)

// ************************************************************************* //
