/*--------------------------------*- C++ -*----------------------------------*\
| =========                 |                                                 |
| \\      /  F ield         | OpenFOAM: The Open Source CFD Toolbox           |
|  \\    /   O peration     | Version:  2.1.1                                 |
|   \\  /    A nd           | Web:      www.OpenFOAM.org                      |
|    \\/     M anipulation  |                                                 |
\*---------------------------------------------------------------------------*/
FoamFile
{
    version     2.0;
    format      ascii;
    class       dictionary;
    location    "constant";
    object      LESProperties;
}
// * * * * * * * * * * * * * * * * * * * * * * * * * * * * * * * * * * * * * //

LESModel       homogeneousDynSmagorinsky;
// LESModel       dynamicSmagorinsky;


printCoeffs     on;

delta           cubeRootVol;

cubeRootVolCoeffs
{
    deltaCoeff      1;
}

homogeneousDynSmagorinskyCoeffs
{
    filter    simple;
    ce        1.048;
}

dynamicSmagorinskyCoeffs
{
    filter    simple;
    ce        1.048;
}

// ************************************************************************* //
