/*--------------------------------*- C++ -*----------------------------------*\
| =========                 |                                                 |
| \\      /  F ield         | OpenFOAM: The Open Source CFD Toolbox           |
|  \\    /   O peration     | Version:  2.3.0                                 |
|   \\  /    A nd           | Web:      www.OpenFOAM.org                      |
|    \\/     M anipulation  |                                                 |
\*---------------------------------------------------------------------------*/
FoamFile
{
    version     2.0;
    format      ascii;
    class       vectorField;
    object      values;
}
// * * * * * * * * * * * * * * * * * * * * * * * * * * * * * * * * * * * * * //


// Data on points

202
(
	(0.001 0.001 0.001)
	(0.001 0.001 0.001)
	(0.001 0.001 0.001)
	(0.001 0.001 0.001)
	(0.001 0.001 0.001)
	(0.001 0.001 0.001)
	(0.001 0.001 0.001)
	(0.001 0.001 0.001)
	(0.001 0.001 0.001)
	(0.001 0.001 0.001)
	(0.001 0.001 0.001)
	(0.001 0.001 0.001)
	(0.001 0.001 0.001)
	(0.001 0.001 0.001)
	(0.001 0.001 0.001)
	(0.001 0.001 0.001)
	(0.001 0.001 0.001)
	(0.001 0.001 0.001)
	(0.001 0.001 0.001)
	(0.001 0.001 0.001)
	(0.001 0.001 0.001)
	(0.001 0.001 0.001)
	(0.001 0.001 0.001)
	(0.001 0.001 0.001)
	(0.001 0.001 0.001)
	(0.001 0.001 0.001)
	(0.001 0.001 0.001)
	(0.001 0.001 0.001)
	(0.001 0.001 0.001)
	(0.001 0.001 0.001)
	(0.001 0.001 0.001)
	(0.001 0.001 0.001)
	(0.001 0.001 0.001)
	(0.001 0.001 0.001)
	(0.001 0.001 0.001)
	(0.001 0.001 0.001)
	(0.001 0.001 0.001)
	(0.001 0.001 0.001)
	(0.001 0.001 0.001)
	(0.001 0.001 0.001)
	(0.001 0.001 0.001)
	(0.001 0.001 0.001)
	(0.001 0.001 0.001)
	(0.001 0.001 0.001)
	(0.001 0.001 0.001)
	(0.001 0.001 0.001)
	(0.001 0.001 0.001)
	(0.001 0.001 0.001)
	(0.001 0.001 0.001)
	(0.001 0.001 0.001)
	(0.001 0.001 0.001)
	(0.001 0.001 0.001)
	(0.001 0.001 0.001)
	(0.001 0.001 0.001)
	(0.001 0.001 0.001)
	(0.001 0.001 0.001)
	(0.001 0.001 0.001)
	(0.001 0.001 0.001)
	(0.001 0.001 0.001)
	(0.001 0.001 0.001)
	(0.001 0.001 0.001)
	(0.001 0.001 0.001)
	(0.02 0.00666666666667 0.02)
	(0.02 0.00666666666667 0.02)
	(0.02 0.00666666666667 0.02)
	(0.02 0.00666666666667 0.02)
	(0.02 0.00666666666667 0.02)
	(0.02 0.00666666666667 0.02)
	(0.02 0.00666666666667 0.02)
	(0.02 0.00666666666667 0.02)
	(0.02 0.00666666666667 0.02)
	(0.02 0.00666666666667 0.02)
	(0.02 0.00666666666667 0.02)
	(0.02 0.00666666666667 0.02)
	(0.02 0.00666666666667 0.02)
	(0.02 0.00666666666667 0.02)
	(0.02 0.00666666666667 0.02)
	(0.02 0.00666666666667 0.02)
	(0.02 0.00666666666667 0.02)
	(0.02 0.00666666666667 0.02)
	(0.02 0.00666666666667 0.02)
	(0.02 0.00666666666667 0.02)
	(0.02 0.00666666666667 0.02)
	(0.02 0.00666666666667 0.02)
	(0.02 0.00666666666667 0.02)
	(0.02 0.00666666666667 0.02)
	(0.02 0.00666666666667 0.02)
	(0.02 0.00666666666667 0.02)
	(0.02 0.00666666666667 0.02)
	(0.02 0.00666666666667 0.02)
	(0.02 0.00666666666667 0.02)
	(0.02 0.00666666666667 0.02)
	(0.02 0.00666666666667 0.02)
	(0.02 0.00666666666667 0.02)
	(0.02 0.00666666666667 0.02)
	(0.02 0.00666666666667 0.02)
	(0.02 0.00666666666667 0.02)
	(0.02 0.00666666666667 0.02)
	(0.02 0.00666666666667 0.02)
	(0.02 0.00666666666667 0.02)
	(0.02 0.00666666666667 0.02)

	(0.001 0.001 0.001)
	(0.001 0.001 0.001)
	(0.001 0.001 0.001)
	(0.001 0.001 0.001)
	(0.001 0.001 0.001)
	(0.001 0.001 0.001)
	(0.001 0.001 0.001)
	(0.001 0.001 0.001)
	(0.001 0.001 0.001)
	(0.001 0.001 0.001)
	(0.001 0.001 0.001)
	(0.001 0.001 0.001)
	(0.001 0.001 0.001)
	(0.001 0.001 0.001)
	(0.001 0.001 0.001)
	(0.001 0.001 0.001)
	(0.001 0.001 0.001)
	(0.001 0.001 0.001)
	(0.001 0.001 0.001)
	(0.001 0.001 0.001)
	(0.001 0.001 0.001)
	(0.001 0.001 0.001)
	(0.001 0.001 0.001)
	(0.001 0.001 0.001)
	(0.001 0.001 0.001)
	(0.001 0.001 0.001)
	(0.001 0.001 0.001)
	(0.001 0.001 0.001)
	(0.001 0.001 0.001)
	(0.001 0.001 0.001)
	(0.001 0.001 0.001)
	(0.001 0.001 0.001)
	(0.001 0.001 0.001)
	(0.001 0.001 0.001)
	(0.001 0.001 0.001)
	(0.001 0.001 0.001)
	(0.001 0.001 0.001)
	(0.001 0.001 0.001)
	(0.001 0.001 0.001)
	(0.001 0.001 0.001)
	(0.001 0.001 0.001)
	(0.001 0.001 0.001)
	(0.001 0.001 0.001)
	(0.001 0.001 0.001)
	(0.001 0.001 0.001)
	(0.001 0.001 0.001)
	(0.001 0.001 0.001)
	(0.001 0.001 0.001)
	(0.001 0.001 0.001)
	(0.001 0.001 0.001)
	(0.001 0.001 0.001)
	(0.001 0.001 0.001)
	(0.001 0.001 0.001)
	(0.001 0.001 0.001)
	(0.001 0.001 0.001)
	(0.001 0.001 0.001)
	(0.001 0.001 0.001)
	(0.001 0.001 0.001)
	(0.001 0.001 0.001)
	(0.001 0.001 0.001)
	(0.001 0.001 0.001)
	(0.001 0.001 0.001)
	(0.02 0.00666666666667 0.02)
	(0.02 0.00666666666667 0.02)
	(0.02 0.00666666666667 0.02)
	(0.02 0.00666666666667 0.02)
	(0.02 0.00666666666667 0.02)
	(0.02 0.00666666666667 0.02)
	(0.02 0.00666666666667 0.02)
	(0.02 0.00666666666667 0.02)
	(0.02 0.00666666666667 0.02)
	(0.02 0.00666666666667 0.02)
	(0.02 0.00666666666667 0.02)
	(0.02 0.00666666666667 0.02)
	(0.02 0.00666666666667 0.02)
	(0.02 0.00666666666667 0.02)
	(0.02 0.00666666666667 0.02)
	(0.02 0.00666666666667 0.02)
	(0.02 0.00666666666667 0.02)
	(0.02 0.00666666666667 0.02)
	(0.02 0.00666666666667 0.02)
	(0.02 0.00666666666667 0.02)
	(0.02 0.00666666666667 0.02)
	(0.02 0.00666666666667 0.02)
	(0.02 0.00666666666667 0.02)
	(0.02 0.00666666666667 0.02)
	(0.02 0.00666666666667 0.02)
	(0.02 0.00666666666667 0.02)
	(0.02 0.00666666666667 0.02)
	(0.02 0.00666666666667 0.02)
	(0.02 0.00666666666667 0.02)
	(0.02 0.00666666666667 0.02)
	(0.02 0.00666666666667 0.02)
	(0.02 0.00666666666667 0.02)
	(0.02 0.00666666666667 0.02)
	(0.02 0.00666666666667 0.02)
	(0.02 0.00666666666667 0.02)
	(0.02 0.00666666666667 0.02)
	(0.02 0.00666666666667 0.02)
	(0.02 0.00666666666667 0.02)
	(0.02 0.00666666666667 0.02)
)