/*--------------------------------*- C++ -*----------------------------------*\
| =========                 |                                                 |
| \\      /  F ield         | OpenFOAM: The Open Source CFD Toolbox           |
|  \\    /   O peration     | Version:  2.3.0                                 |
|   \\  /    A nd           | Web:      www.OpenFOAM.org                      |
|    \\/     M anipulation  |                                                 |
\*---------------------------------------------------------------------------*/
FoamFile
{
    version     2.0;
    format      ascii;
    class       symmTensorField;
    object      values;
}
// * * * * * * * * * * * * * * * * * * * * * * * * * * * * * * * * * * * * * //


// Data on points

202
(
	(0.000048   0.00001102   0.00000190   0.00020641   0.00000000   0.00004886)
	(0.000048   0.00001102   0.00000190   0.00020641   0.00000000   0.00004886)
	(0.000049   0.00001180   0.00000190   0.00020929   0.00000000   0.00004957)
	(0.000049   0.00001261   0.00000178   0.00021240   0.00000000   0.00004962)
	(0.000050   0.00001358   0.00000180   0.00021602   0.00000000   0.00005063)
	(0.000050   0.00001456   0.00000166   0.00021965   0.00000000   0.00005089)
	(0.000050   0.00001553   0.00000149   0.00022327   0.00000000   0.00005109)
	(0.000050   0.00001651   0.00000141   0.00022699   0.00000000   0.00005193)
	(0.000050   0.00001769   0.00000124   0.00023147   0.00000000   0.00005230)
	(0.000051   0.00001890   0.00000106   0.00023595   0.00000000   0.00005323)
	(0.000051   0.00002011   0.00000086   0.00024043   0.00000000   0.00005412)
	(0.000051   0.00002132   0.00000067   0.00024497   0.00000000   0.00005473)
	(0.000052   0.00002273   0.00000030   0.00025043   0.00000000   0.00005625)
	(0.000053   0.00002420   0.00000011   0.00025589   0.00000000   0.00005748)
	(0.000053   0.00002567  -0.00000013   0.00026135   0.00000000   0.00005916)
	(0.000054   0.00002715  -0.00000044   0.00026693   0.00000000   0.00006107)
	(0.000055   0.00002886  -0.00000072   0.00027350   0.00000000   0.00006251)
	(0.000057   0.00003062  -0.00000094   0.00028008   0.00000000   0.00006499)
	(0.000058   0.00003239  -0.00000158   0.00028665   0.00000000   0.00006722)
	(0.000060   0.00003418  -0.00000226   0.00029359   0.00000000   0.00006942)
	(0.000063   0.00003626  -0.00000293   0.00030142   0.00000000   0.00007237)
	(0.000066   0.00003836  -0.00000383   0.00030926   0.00000000   0.00007485)
	(0.000069   0.00004047  -0.00000475   0.00031710   0.00000000   0.00007822)
	(0.000072   0.00004267  -0.00000558   0.00032577   0.00000000   0.00008172)
	(0.000075   0.00004515  -0.00000647   0.00033502   0.00000000   0.00008514)
	(0.000080   0.00004764  -0.00000720   0.00034428   0.00000000   0.00008997)
	(0.000084   0.00005013  -0.00000836   0.00035369   0.00000000   0.00009446)
	(0.000089   0.00005288  -0.00000980   0.00036441   0.00000000   0.00009949)
	(0.000096   0.00005579  -0.00001156   0.00037526   0.00000000   0.00010539)
	(0.000102   0.00005871  -0.00001364   0.00038611   0.00000000   0.00011108)
	(0.000111   0.00006169  -0.00001590   0.00039795   0.00000000   0.00011770)
	(0.000121   0.00006508  -0.00001867   0.00041059   0.00000000   0.00012415)
	(0.000132   0.00006847  -0.00002171   0.00042323   0.00000000   0.00013065)
	(0.000144   0.00007187  -0.00002464   0.00043629   0.00000000   0.00013788)
	(0.000155   0.00007566  -0.00002730   0.00045093   0.00000000   0.00014472)
	(0.000170   0.00007958  -0.00002998   0.00046557   0.00000000   0.00015306)
	(0.000185   0.00008350  -0.00003315   0.00048045   0.00000000   0.00016171)
	(0.000200   0.00008773  -0.00003582   0.00049705   0.00000000   0.00016956)
	(0.000217   0.00009225  -0.00003822   0.00051392   0.00000000   0.00017882)
	(0.000235   0.00009677  -0.00004053   0.00053096   0.00000000   0.00018710)
	(0.000255   0.00010153  -0.00004294   0.00054984   0.00000000   0.00019561)
	(0.000276   0.00010671  -0.00004532   0.00056919   0.00000000   0.00020501)
	(0.000297   0.00011189  -0.00004770   0.00058875   0.00000000   0.00021410)
	(0.000323   0.00011732  -0.00005044   0.00061035   0.00000000   0.00022535)
	(0.000350   0.00012324  -0.00005349   0.00063246   0.00000000   0.00023627)
	(0.000378   0.00012917  -0.00005668   0.00065497   0.00000000   0.00024770)
	(0.000409   0.00013543  -0.00005971   0.00067979   0.00000000   0.00026166)
	(0.000440   0.00014217  -0.00006249   0.00070499   0.00000000   0.00027432)
	(0.000477   0.00014892  -0.00006575   0.00073099   0.00000000   0.00028902)
	(0.000515   0.00015622  -0.00006982   0.00075961   0.00000000   0.00030343)
	(0.000556   0.00016388  -0.00007400   0.00078822   0.00000000   0.00031777)
	(0.000602   0.00017162  -0.00007856   0.00081904   0.00000000   0.00033577)
	(0.000645   0.00018012  -0.00008291   0.00085146   0.00000000   0.00035171)
	(0.000693   0.00018880  -0.00008701   0.00088447   0.00000000   0.00036949)
	(0.000741   0.00019785  -0.00009108   0.00092065   0.00000000   0.00038936)
	(0.000788   0.00020766  -0.00009506   0.00095731   0.00000000   0.00040790)
	(0.000844   0.00021752  -0.00009970   0.00099671   0.00000000   0.00043021)
	(0.000903   0.00022836  -0.00010487   0.00103808   0.00000000   0.00045185)
	(0.000970   0.00023943  -0.00010977   0.00108083   0.00000000   0.00047546)
	(0.001048   0.00025118  -0.00011549   0.00112736   0.00000000   0.00050189)
	(0.001126   0.00026367  -0.00012226   0.00117472   0.00000000   0.00052525)
	(0.001221   0.00027654  -0.00012989   0.00122652   0.00000000   0.00055557)
	(0.001317   0.00029055  -0.00013892   0.00127928   0.00000000   0.00058686)
	(0.001414   0.00030487  -0.00014911   0.00133723   0.00000000   0.00061900)
	(0.001525   0.00032052  -0.00016112   0.00139639   0.00000000   0.00065777)
	(0.001633   0.00033657  -0.00017525   0.00146150   0.00000000   0.00069571)
	(0.001760   0.00035414  -0.00019180   0.00152831   0.00000000   0.00073809)
	(0.001906   0.00037225  -0.00021114   0.00160173   0.00000000   0.00078499)
	(0.002070   0.00039206  -0.00023458   0.00167782   0.00000000   0.00083104)
	(0.002276   0.00041267  -0.00026282   0.00176088   0.00000000   0.00089289)
	(0.002490   0.00043508  -0.00029657   0.00184830   0.00000000   0.00095093)
	(0.002736   0.00045885  -0.00033475   0.00194254   0.00000000   0.00101615)
	(0.003026   0.00048421  -0.00037862   0.00204507   0.00000000   0.00109678)
	(0.003328   0.00051210  -0.00042886   0.00215394   0.00000000   0.00117649)
	(0.003708   0.00054165  -0.00048763   0.00227262   0.00000000   0.00127459)
	(0.004129   0.00057377  -0.00055749   0.00240276   0.00000000   0.00136674)
	(0.004594   0.00060926  -0.00063776   0.00254356   0.00000000   0.00146780)
	(0.005142   0.00064769  -0.00072744   0.00269841   0.00000000   0.00159541)
	(0.005706   0.00069009  -0.00082426   0.00286930   0.00000000   0.00171684)
	(0.006394   0.00073704  -0.00093399   0.00306136   0.00000000   0.00184835)
	(0.007180   0.00078973  -0.00105969   0.00327494   0.00000000   0.00198237)
	(0.007968   0.00084896  -0.00119796   0.00351363   0.00000000   0.00211842)
	(0.008900   0.00091571  -0.00135270   0.00378248   0.00000000   0.00229158)
	(0.009787   0.00099203  -0.00151030   0.00408917   0.00000000   0.00243252)
	(0.010697   0.00107924  -0.00168120   0.00443695   0.00000000   0.00258486)
	(0.011683   0.00117958  -0.00187797   0.00483888   0.00000000   0.00277552)
	(0.012518   0.00129864  -0.00208724   0.00530480   0.00000000   0.00292982)
	(0.013532   0.00144025  -0.00232874   0.00585154   0.00000000   0.00313470)
	(0.014297   0.00161128  -0.00257312   0.00648323   0.00000000   0.00331390)
	(0.014801   0.00181200  -0.00280081   0.00717425   0.00000000   0.00345620)
	(0.015422   0.00201771  -0.00300804   0.00782587   0.00000000   0.00360279)
	(0.015713   0.00218882  -0.00316572   0.00835541   0.00000000   0.00364644)
	(0.016354   0.00230180  -0.00330718   0.00869236   0.00000000   0.00370080)
	(0.017268   0.00233643  -0.00339389   0.00876718   0.00000000   0.00366835)
	(0.018430   0.00227737  -0.00340533   0.00852082   0.00000000   0.00343557)
	(0.021027   0.00211729  -0.00337841   0.00791653   0.00000000   0.00317032)
	(0.023874   0.00185748  -0.00318885   0.00694860   0.00000000   0.00258702)
	(0.026914   0.00150349  -0.00281957   0.00562984   0.00000000   0.00186255)
	(0.028490   0.00106894  -0.00207180   0.00400588   0.00000000   0.00113086)
	(0.021631   0.00056380  -0.00100119   0.00211390   0.00000000   0.00042203)
	(0.000000   0.00000000   0.00000000   0.00000000   0.00000000   0.00000000)

	(0.000048   0.00001102   0.00000190   0.00020641   0.00000000   0.00004886)
	(0.000048   0.00001102   0.00000190   0.00020641   0.00000000   0.00004886)
	(0.000049   0.00001180   0.00000190   0.00020929   0.00000000   0.00004957)
	(0.000049   0.00001261   0.00000178   0.00021240   0.00000000   0.00004962)
	(0.000050   0.00001358   0.00000180   0.00021602   0.00000000   0.00005063)
	(0.000050   0.00001456   0.00000166   0.00021965   0.00000000   0.00005089)
	(0.000050   0.00001553   0.00000149   0.00022327   0.00000000   0.00005109)
	(0.000050   0.00001651   0.00000141   0.00022699   0.00000000   0.00005193)
	(0.000050   0.00001769   0.00000124   0.00023147   0.00000000   0.00005230)
	(0.000051   0.00001890   0.00000106   0.00023595   0.00000000   0.00005323)
	(0.000051   0.00002011   0.00000086   0.00024043   0.00000000   0.00005412)
	(0.000051   0.00002132   0.00000067   0.00024497   0.00000000   0.00005473)
	(0.000052   0.00002273   0.00000030   0.00025043   0.00000000   0.00005625)
	(0.000053   0.00002420   0.00000011   0.00025589   0.00000000   0.00005748)
	(0.000053   0.00002567  -0.00000013   0.00026135   0.00000000   0.00005916)
	(0.000054   0.00002715  -0.00000044   0.00026693   0.00000000   0.00006107)
	(0.000055   0.00002886  -0.00000072   0.00027350   0.00000000   0.00006251)
	(0.000057   0.00003062  -0.00000094   0.00028008   0.00000000   0.00006499)
	(0.000058   0.00003239  -0.00000158   0.00028665   0.00000000   0.00006722)
	(0.000060   0.00003418  -0.00000226   0.00029359   0.00000000   0.00006942)
	(0.000063   0.00003626  -0.00000293   0.00030142   0.00000000   0.00007237)
	(0.000066   0.00003836  -0.00000383   0.00030926   0.00000000   0.00007485)
	(0.000069   0.00004047  -0.00000475   0.00031710   0.00000000   0.00007822)
	(0.000072   0.00004267  -0.00000558   0.00032577   0.00000000   0.00008172)
	(0.000075   0.00004515  -0.00000647   0.00033502   0.00000000   0.00008514)
	(0.000080   0.00004764  -0.00000720   0.00034428   0.00000000   0.00008997)
	(0.000084   0.00005013  -0.00000836   0.00035369   0.00000000   0.00009446)
	(0.000089   0.00005288  -0.00000980   0.00036441   0.00000000   0.00009949)
	(0.000096   0.00005579  -0.00001156   0.00037526   0.00000000   0.00010539)
	(0.000102   0.00005871  -0.00001364   0.00038611   0.00000000   0.00011108)
	(0.000111   0.00006169  -0.00001590   0.00039795   0.00000000   0.00011770)
	(0.000121   0.00006508  -0.00001867   0.00041059   0.00000000   0.00012415)
	(0.000132   0.00006847  -0.00002171   0.00042323   0.00000000   0.00013065)
	(0.000144   0.00007187  -0.00002464   0.00043629   0.00000000   0.00013788)
	(0.000155   0.00007566  -0.00002730   0.00045093   0.00000000   0.00014472)
	(0.000170   0.00007958  -0.00002998   0.00046557   0.00000000   0.00015306)
	(0.000185   0.00008350  -0.00003315   0.00048045   0.00000000   0.00016171)
	(0.000200   0.00008773  -0.00003582   0.00049705   0.00000000   0.00016956)
	(0.000217   0.00009225  -0.00003822   0.00051392   0.00000000   0.00017882)
	(0.000235   0.00009677  -0.00004053   0.00053096   0.00000000   0.00018710)
	(0.000255   0.00010153  -0.00004294   0.00054984   0.00000000   0.00019561)
	(0.000276   0.00010671  -0.00004532   0.00056919   0.00000000   0.00020501)
	(0.000297   0.00011189  -0.00004770   0.00058875   0.00000000   0.00021410)
	(0.000323   0.00011732  -0.00005044   0.00061035   0.00000000   0.00022535)
	(0.000350   0.00012324  -0.00005349   0.00063246   0.00000000   0.00023627)
	(0.000378   0.00012917  -0.00005668   0.00065497   0.00000000   0.00024770)
	(0.000409   0.00013543  -0.00005971   0.00067979   0.00000000   0.00026166)
	(0.000440   0.00014217  -0.00006249   0.00070499   0.00000000   0.00027432)
	(0.000477   0.00014892  -0.00006575   0.00073099   0.00000000   0.00028902)
	(0.000515   0.00015622  -0.00006982   0.00075961   0.00000000   0.00030343)
	(0.000556   0.00016388  -0.00007400   0.00078822   0.00000000   0.00031777)
	(0.000602   0.00017162  -0.00007856   0.00081904   0.00000000   0.00033577)
	(0.000645   0.00018012  -0.00008291   0.00085146   0.00000000   0.00035171)
	(0.000693   0.00018880  -0.00008701   0.00088447   0.00000000   0.00036949)
	(0.000741   0.00019785  -0.00009108   0.00092065   0.00000000   0.00038936)
	(0.000788   0.00020766  -0.00009506   0.00095731   0.00000000   0.00040790)
	(0.000844   0.00021752  -0.00009970   0.00099671   0.00000000   0.00043021)
	(0.000903   0.00022836  -0.00010487   0.00103808   0.00000000   0.00045185)
	(0.000970   0.00023943  -0.00010977   0.00108083   0.00000000   0.00047546)
	(0.001048   0.00025118  -0.00011549   0.00112736   0.00000000   0.00050189)
	(0.001126   0.00026367  -0.00012226   0.00117472   0.00000000   0.00052525)
	(0.001221   0.00027654  -0.00012989   0.00122652   0.00000000   0.00055557)
	(0.001317   0.00029055  -0.00013892   0.00127928   0.00000000   0.00058686)
	(0.001414   0.00030487  -0.00014911   0.00133723   0.00000000   0.00061900)
	(0.001525   0.00032052  -0.00016112   0.00139639   0.00000000   0.00065777)
	(0.001633   0.00033657  -0.00017525   0.00146150   0.00000000   0.00069571)
	(0.001760   0.00035414  -0.00019180   0.00152831   0.00000000   0.00073809)
	(0.001906   0.00037225  -0.00021114   0.00160173   0.00000000   0.00078499)
	(0.002070   0.00039206  -0.00023458   0.00167782   0.00000000   0.00083104)
	(0.002276   0.00041267  -0.00026282   0.00176088   0.00000000   0.00089289)
	(0.002490   0.00043508  -0.00029657   0.00184830   0.00000000   0.00095093)
	(0.002736   0.00045885  -0.00033475   0.00194254   0.00000000   0.00101615)
	(0.003026   0.00048421  -0.00037862   0.00204507   0.00000000   0.00109678)
	(0.003328   0.00051210  -0.00042886   0.00215394   0.00000000   0.00117649)
	(0.003708   0.00054165  -0.00048763   0.00227262   0.00000000   0.00127459)
	(0.004129   0.00057377  -0.00055749   0.00240276   0.00000000   0.00136674)
	(0.004594   0.00060926  -0.00063776   0.00254356   0.00000000   0.00146780)
	(0.005142   0.00064769  -0.00072744   0.00269841   0.00000000   0.00159541)
	(0.005706   0.00069009  -0.00082426   0.00286930   0.00000000   0.00171684)
	(0.006394   0.00073704  -0.00093399   0.00306136   0.00000000   0.00184835)
	(0.007180   0.00078973  -0.00105969   0.00327494   0.00000000   0.00198237)
	(0.007968   0.00084896  -0.00119796   0.00351363   0.00000000   0.00211842)
	(0.008900   0.00091571  -0.00135270   0.00378248   0.00000000   0.00229158)
	(0.009787   0.00099203  -0.00151030   0.00408917   0.00000000   0.00243252)
	(0.010697   0.00107924  -0.00168120   0.00443695   0.00000000   0.00258486)
	(0.011683   0.00117958  -0.00187797   0.00483888   0.00000000   0.00277552)
	(0.012518   0.00129864  -0.00208724   0.00530480   0.00000000   0.00292982)
	(0.013532   0.00144025  -0.00232874   0.00585154   0.00000000   0.00313470)
	(0.014297   0.00161128  -0.00257312   0.00648323   0.00000000   0.00331390)
	(0.014801   0.00181200  -0.00280081   0.00717425   0.00000000   0.00345620)
	(0.015422   0.00201771  -0.00300804   0.00782587   0.00000000   0.00360279)
	(0.015713   0.00218882  -0.00316572   0.00835541   0.00000000   0.00364644)
	(0.016354   0.00230180  -0.00330718   0.00869236   0.00000000   0.00370080)
	(0.017268   0.00233643  -0.00339389   0.00876718   0.00000000   0.00366835)
	(0.018430   0.00227737  -0.00340533   0.00852082   0.00000000   0.00343557)
	(0.021027   0.00211729  -0.00337841   0.00791653   0.00000000   0.00317032)
	(0.023874   0.00185748  -0.00318885   0.00694860   0.00000000   0.00258702)
	(0.026914   0.00150349  -0.00281957   0.00562984   0.00000000   0.00186255)
	(0.028490   0.00106894  -0.00207180   0.00400588   0.00000000   0.00113086)
	(0.021631   0.00056380  -0.00100119   0.00211390   0.00000000   0.00042203)
	(0.000000   0.00000000   0.00000000   0.00000000   0.00000000   0.00000000)
)