/*--------------------------------*- C++ -*----------------------------------*\
| =========                 |                                                 |
| \\      /  F ield         | OpenFOAM: The Open Source CFD Toolbox           |
|  \\    /   O peration     | Version:  2.3.0                                 |
|   \\  /    A nd           | Web:      www.OpenFOAM.org                      |
|    \\/     M anipulation  |                                                 |
\*---------------------------------------------------------------------------*/
FoamFile
{
    version     2.0;
    format      ascii;
    class       vectorField;
    object      values;
}
// * * * * * * * * * * * * * * * * * * * * * * * * * * * * * * * * * * * * * //


// Data on points
202
(
	(1.11966167472 0.0 0.0)
	(1.11966167472 0.0 0.0)
	(1.11958207898 0.0 0.0)
	(1.11949570218 0.0 0.0)
	(1.11950322477 0.0 0.0)
	(1.11951860414 0.0 0.0)
	(1.11956432556 0.0 0.0)
	(1.11964660414 0.0 0.0)
	(1.11972714565 0.0 0.0)
	(1.11980665301 0.0 0.0)
	(1.11988766514 0.0 0.0)
	(1.11996775474 0.0 0.0)
	(1.12005567864 0.0 0.0)
	(1.12010332259 0.0 0.0)
	(1.12012658302 0.0 0.0)
	(1.12012500417 0.0 0.0)
	(1.12010546911 0.0 0.0)
	(1.12000835582 0.0 0.0)
	(1.11993079451 0.0 0.0)
	(1.1198170187 0.0 0.0)
	(1.11968989334 0.0 0.0)
	(1.11954027138 0.0 0.0)
	(1.11946607892 0.0 0.0)
	(1.11943050073 0.0 0.0)
	(1.11942395345 0.0 0.0)
	(1.11947071553 0.0 0.0)
	(1.11950432611 0.0 0.0)
	(1.1195873576 0.0 0.0)
	(1.11967087409 0.0 0.0)
	(1.11973973208 0.0 0.0)
	(1.11974398957 0.0 0.0)
	(1.11972132812 0.0 0.0)
	(1.11962476797 0.0 0.0)
	(1.11945721352 0.0 0.0)
	(1.11925217892 0.0 0.0)
	(1.11899294874 0.0 0.0)
	(1.11872138695 0.0 0.0)
	(1.11841342732 0.0 0.0)
	(1.11816551942 0.0 0.0)
	(1.1179001308 0.0 0.0)
	(1.11762792293 0.0 0.0)
	(1.1173055625 0.0 0.0)
	(1.11696607631 0.0 0.0)
	(1.11660894066 0.0 0.0)
	(1.11617451738 0.0 0.0)
	(1.11571482049 0.0 0.0)
	(1.11525890549 0.0 0.0)
	(1.11472644129 0.0 0.0)
	(1.11412891173 0.0 0.0)
	(1.11353689209 0.0 0.0)
	(1.11291282425 0.0 0.0)
	(1.11225655419 0.0 0.0)
	(1.11156635073 0.0 0.0)
	(1.11087198474 0.0 0.0)
	(1.11013573943 0.0 0.0)
	(1.10933012568 0.0 0.0)
	(1.10852021756 0.0 0.0)
	(1.10765272846 0.0 0.0)
	(1.10673461147 0.0 0.0)
	(1.1057976979 0.0 0.0)
	(1.10481649673 0.0 0.0)
	(1.10378189513 0.0 0.0)
	(1.10269385946 0.0 0.0)
	(1.10154595443 0.0 0.0)
	(1.10037255048 0.0 0.0)
	(1.09910812534 0.0 0.0)
	(1.09774181784 0.0 0.0)
	(1.09626924827 0.0 0.0)
	(1.09468566928 0.0 0.0)
	(1.09292140473 0.0 0.0)
	(1.09095062666 0.0 0.0)
	(1.08880058007 0.0 0.0)
	(1.08638972588 0.0 0.0)
	(1.08360949944 0.0 0.0)
	(1.08051816383 0.0 0.0)
	(1.07691853759 0.0 0.0)
	(1.07279902136 0.0 0.0)
	(1.0682551181 0.0 0.0)
	(1.06300174924 0.0 0.0)
	(1.05715249529 0.0 0.0)
	(1.05058431004 0.0 0.0)
	(1.04318879116 0.0 0.0)
	(1.03516091528 0.0 0.0)
	(1.02605116675 0.0 0.0)
	(1.01576829064 0.0 0.0)
	(1.00410655082 0.0 0.0)
	(0.990384458063 0.0 0.0)
	(0.975061533045 0.0 0.0)
	(0.957116348102 0.0 0.0)
	(0.936431687709 0.0 0.0)
	(0.913539296662 0.0 0.0)
	(0.887393513033 0.0 0.0)
	(0.858708587977 0.0 0.0)
	(0.826844601254 0.0 0.0)
	(0.790030649287 0.0 0.0)
	(0.749461314684 0.0 0.0)
	(0.698648520992 0.0 0.0)
	(0.630244777045 0.0 0.0)
	(0.526012117798 0.0 0.0)
	(0.341680313032 0.0 0.0)
	(0.0 0.0 0.0)

	(1.11966167472 0.0 0.0)
	(1.11966167472 0.0 0.0)
	(1.11958207898 0.0 0.0)
	(1.11949570218 0.0 0.0)
	(1.11950322477 0.0 0.0)
	(1.11951860414 0.0 0.0)
	(1.11956432556 0.0 0.0)
	(1.11964660414 0.0 0.0)
	(1.11972714565 0.0 0.0)
	(1.11980665301 0.0 0.0)
	(1.11988766514 0.0 0.0)
	(1.11996775474 0.0 0.0)
	(1.12005567864 0.0 0.0)
	(1.12010332259 0.0 0.0)
	(1.12012658302 0.0 0.0)
	(1.12012500417 0.0 0.0)
	(1.12010546911 0.0 0.0)
	(1.12000835582 0.0 0.0)
	(1.11993079451 0.0 0.0)
	(1.1198170187 0.0 0.0)
	(1.11968989334 0.0 0.0)
	(1.11954027138 0.0 0.0)
	(1.11946607892 0.0 0.0)
	(1.11943050073 0.0 0.0)
	(1.11942395345 0.0 0.0)
	(1.11947071553 0.0 0.0)
	(1.11950432611 0.0 0.0)
	(1.1195873576 0.0 0.0)
	(1.11967087409 0.0 0.0)
	(1.11973973208 0.0 0.0)
	(1.11974398957 0.0 0.0)
	(1.11972132812 0.0 0.0)
	(1.11962476797 0.0 0.0)
	(1.11945721352 0.0 0.0)
	(1.11925217892 0.0 0.0)
	(1.11899294874 0.0 0.0)
	(1.11872138695 0.0 0.0)
	(1.11841342732 0.0 0.0)
	(1.11816551942 0.0 0.0)
	(1.1179001308 0.0 0.0)
	(1.11762792293 0.0 0.0)
	(1.1173055625 0.0 0.0)
	(1.11696607631 0.0 0.0)
	(1.11660894066 0.0 0.0)
	(1.11617451738 0.0 0.0)
	(1.11571482049 0.0 0.0)
	(1.11525890549 0.0 0.0)
	(1.11472644129 0.0 0.0)
	(1.11412891173 0.0 0.0)
	(1.11353689209 0.0 0.0)
	(1.11291282425 0.0 0.0)
	(1.11225655419 0.0 0.0)
	(1.11156635073 0.0 0.0)
	(1.11087198474 0.0 0.0)
	(1.11013573943 0.0 0.0)
	(1.10933012568 0.0 0.0)
	(1.10852021756 0.0 0.0)
	(1.10765272846 0.0 0.0)
	(1.10673461147 0.0 0.0)
	(1.1057976979 0.0 0.0)
	(1.10481649673 0.0 0.0)
	(1.10378189513 0.0 0.0)
	(1.10269385946 0.0 0.0)
	(1.10154595443 0.0 0.0)
	(1.10037255048 0.0 0.0)
	(1.09910812534 0.0 0.0)
	(1.09774181784 0.0 0.0)
	(1.09626924827 0.0 0.0)
	(1.09468566928 0.0 0.0)
	(1.09292140473 0.0 0.0)
	(1.09095062666 0.0 0.0)
	(1.08880058007 0.0 0.0)
	(1.08638972588 0.0 0.0)
	(1.08360949944 0.0 0.0)
	(1.08051816383 0.0 0.0)
	(1.07691853759 0.0 0.0)
	(1.07279902136 0.0 0.0)
	(1.0682551181 0.0 0.0)
	(1.06300174924 0.0 0.0)
	(1.05715249529 0.0 0.0)
	(1.05058431004 0.0 0.0)
	(1.04318879116 0.0 0.0)
	(1.03516091528 0.0 0.0)
	(1.02605116675 0.0 0.0)
	(1.01576829064 0.0 0.0)
	(1.00410655082 0.0 0.0)
	(0.990384458063 0.0 0.0)
	(0.975061533045 0.0 0.0)
	(0.957116348102 0.0 0.0)
	(0.936431687709 0.0 0.0)
	(0.913539296662 0.0 0.0)
	(0.887393513033 0.0 0.0)
	(0.858708587977 0.0 0.0)
	(0.826844601254 0.0 0.0)
	(0.790030649287 0.0 0.0)
	(0.749461314684 0.0 0.0)
	(0.698648520992 0.0 0.0)
	(0.630244777045 0.0 0.0)
	(0.526012117798 0.0 0.0)
	(0.341680313032 0.0 0.0)
	(0.0 0.0 0.0)
)