/*--------------------------------*- C++ -*----------------------------------*\
| =========                 |                                                 |
| \\      /  F ield         | OpenFOAM: The Open Source CFD Toolbox           |
|  \\    /   O peration     | Version:  2.2.1                                 |
|   \\  /    A nd           | Web:      www.OpenFOAM.com                      |
|    \\/     M anipulation  |                                                 |
\*---------------------------------------------------------------------------*/
FoamFile
{
    version     2.0;
    format      ascii;
    class       dictionary;
    location    "system";
    object      controlDict;
}
// * * * * * * * * * * * * * * * * * * * * * * * * * * * * * * * * * * * * * //


// the ntd controlDict is never used/readed during the 
// run of a nested solver. Nevertheless a valid controlDict file
// is needed for all the pre- and post-processing tasks done on the
// ntd case (mesh generation, post-processing new fields, etc...)

libs 
(
    "libLEMOSinflowMod.so"
    "libnestedBlendedVelocity.so"
//     "libdynamicSmagorinskyModel.so"
);

application     nestedExpBlendDspimpleFoam;

startFrom       latestTime;

startTime       0;

stopAt          endTime;

endTime         100;

deltaT          0.00005;

// writeControl    timeStep;
writeControl    adjustableRunTime;

writeInterval   0.05;

purgeWrite      0;

writeFormat     ascii;

writePrecision  10;

writeCompression off;

timeFormat      general;

timePrecision   8;

runTimeModifiable false;

// never used during the run of a nested solver. Use the function section
// in nestetingControlDict of this case
functions
{
}

// ************************************************************************* //

